
Note: No compatibility mode selected!


Circuit: * freepdk45/openram 6t sram ngspice template (predictive model include)

Doing analysis at TEMP = 125.000000 and TNOM = 27.000000

Using SPARSE 1.3 as Direct Linear Solver
Operating point simulation skipped by 'uic',
  now using transient initial conditions.

No. of Data Rows : 5040
vq_hold             =  1.195231e-01
vq_read             =  9.963321e-01
vq_w0               =  9.963312e-01
vq_w1               =  9.998545e-01
snm_proxy           =  2.050804e-11 at=  1.000100e-09
MEAS_CORNER=tt
MEAS_TEMP_K=398.150000
MEAS_VDD=1.000000
MEAS_SNM_MV=1.0254E-08
MEAS_NOISE=0.876882
MEAS_BER=0.999994
MEAS_HOLD_SNM_MV=1.0254E-08
MEAS_READ_SNM_MV=-876.809
MEAS_WRITE_MARGIN_MV=999.855
MEAS_NOISE_SIGMA=0.876882
MEAS_READ_FAIL=1
MEAS_WRITE_FAIL=2.72539E-52
ngspice-45.2 done
