
Note: No compatibility mode selected!


Circuit: * freepdk45/openram 6t sram ngspice template (predictive model include)

Doing analysis at TEMP = 125.000000 and TNOM = 27.000000

Using SPARSE 1.3 as Direct Linear Solver
Operating point simulation skipped by 'uic',
  now using transient initial conditions.

No. of Data Rows : 5040
vq_hold             =  1.026711e-01
vq_read             =  8.978094e-01
vq_w0               =  8.978087e-01
vq_w1               =  8.998746e-01
snm_proxy           =  1.889133e-11 at=  1.000100e-09
MEAS_CORNER=tt
MEAS_TEMP_K=398.150000
MEAS_VDD=0.900000
MEAS_SNM_MV=9.44566E-09
MEAS_NOISE=0.883557
MEAS_BER=0.999994
MEAS_HOLD_SNM_MV=9.44566E-09
MEAS_READ_SNM_MV=-795.138
MEAS_WRITE_MARGIN_MV=899.875
MEAS_NOISE_SIGMA=0.883557
MEAS_READ_FAIL=1
MEAS_WRITE_FAIL=7.29489E-47
ngspice-45.2 done
