
Note: No compatibility mode selected!


Circuit: * gf180mcu 6t sram ngspice template (real pdk deck include)

Doing analysis at TEMP = 25.000000 and TNOM = 27.000000

Using SPARSE 1.3 as Direct Linear Solver
Operating point simulation skipped by 'uic',
  now using transient initial conditions.

No. of Data Rows : 5047
vq_hold             =  1.914663e-01
vq_read             =  2.675702e-01
vq_w0               =  5.623214e-09
vq_w1               =  2.675701e-01
snm_proxy           =  1.862571e-02 at=  1.000100e-09
MEAS_CORNER=ff
MEAS_TEMP_K=298.150000
MEAS_VDD=1.980000
MEAS_SNM_MV=9.31286
MEAS_NOISE=0.470868
MEAS_BER=0.999984
MEAS_HOLD_SNM_MV=9.31286
MEAS_READ_SNM_MV=-66.791
MEAS_WRITE_MARGIN_MV=267.57
MEAS_NOISE_SIGMA=0.470868
MEAS_READ_FAIL=1
MEAS_WRITE_FAIL=1.54459E-12
ngspice-45.2 done
