
Note: No compatibility mode selected!


Circuit: * gf180mcu 6t sram ngspice template (real pdk deck include)

Doing analysis at TEMP = -40.000000 and TNOM = 27.000000

Using SPARSE 1.3 as Direct Linear Solver
Operating point simulation skipped by 'uic',
  now using transient initial conditions.

No. of Data Rows : 5051
vq_hold             =  1.457035e-01
vq_read             =  2.196215e-01
vq_w0               =  1.518311e-09
vq_w1               =  2.196215e-01
snm_proxy           =  7.901144e-02 at=  1.000100e-09
MEAS_CORNER=ff
MEAS_TEMP_K=233.150000
MEAS_VDD=1.800000
MEAS_SNM_MV=39.5057
MEAS_NOISE=0.48006
MEAS_BER=0.999681
MEAS_HOLD_SNM_MV=39.5057
MEAS_READ_SNM_MV=-34.4123
MEAS_WRITE_MARGIN_MV=219.622
MEAS_NOISE_SIGMA=0.48006
MEAS_READ_FAIL=0.999974
MEAS_WRITE_FAIL=6.19141E-10
ngspice-45.2 done
