
Note: No compatibility mode selected!


Circuit: * gf180mcu 6t sram ngspice template (real pdk deck include)

Doing analysis at TEMP = -40.000000 and TNOM = 27.000000

Using SPARSE 1.3 as Direct Linear Solver
Operating point simulation skipped by 'uic',
  now using transient initial conditions.

No. of Data Rows : 5046
vq_hold             =  7.044236e-02
vq_read             =  8.128930e-01
vq_w0               =  7.795040e-06
vq_w1               =  1.842583e-01
snm_proxy           =  1.874373e-03 at=  1.000100e-09
MEAS_CORNER=fs
MEAS_TEMP_K=233.150000
MEAS_VDD=1.620000
MEAS_SNM_MV=0.937186
MEAS_NOISE=0.901433
MEAS_BER=0.999993
MEAS_HOLD_SNM_MV=0.937186
MEAS_READ_SNM_MV=-741.513
MEAS_WRITE_MARGIN_MV=184.258
MEAS_NOISE_SIGMA=0.901433
MEAS_READ_FAIL=1
MEAS_WRITE_FAIL=5.14689E-08
ngspice-45.2 done
