
Note: No compatibility mode selected!


Circuit: * gf180mcu 6t sram ngspice template (real pdk deck include)

Doing analysis at TEMP = 25.000000 and TNOM = 27.000000

Using SPARSE 1.3 as Direct Linear Solver
Operating point simulation skipped by 'uic',
  now using transient initial conditions.

No. of Data Rows : 5047
vq_hold             =  1.293476e-01
vq_read             =  2.568552e-01
vq_w0               =  3.203729e-09
vq_w1               =  2.568191e-01
snm_proxy           =  1.442960e-02 at=  1.000100e-09
MEAS_CORNER=fs
MEAS_TEMP_K=298.150000
MEAS_VDD=1.980000
MEAS_SNM_MV=7.2148
MEAS_NOISE=0.499544
MEAS_BER=0.999987
MEAS_HOLD_SNM_MV=7.2148
MEAS_READ_SNM_MV=-120.293
MEAS_WRITE_MARGIN_MV=256.819
MEAS_NOISE_SIGMA=0.499544
MEAS_READ_FAIL=1
MEAS_WRITE_FAIL=5.92176E-12
ngspice-45.2 done
