
Note: No compatibility mode selected!


Circuit: * gf180mcu 6t sram ngspice template (real pdk deck include)

Doing analysis at TEMP = -40.000000 and TNOM = 27.000000

Using SPARSE 1.3 as Direct Linear Solver
Operating point simulation skipped by 'uic',
  now using transient initial conditions.

No. of Data Rows : 5046
vq_hold             =  1.466796e-01
vq_read             =  1.525613e-01
vq_w0               =  1.943454e-09
vq_w1               =  1.524615e-01
snm_proxy           =  2.050122e-03 at=  1.000100e-09
MEAS_CORNER=sf
MEAS_TEMP_K=233.150000
MEAS_VDD=1.620000
MEAS_SNM_MV=1.02506
MEAS_NOISE=0.456575
MEAS_BER=0.999993
MEAS_HOLD_SNM_MV=1.02506
MEAS_READ_SNM_MV=-4.85664
MEAS_WRITE_MARGIN_MV=152.462
MEAS_NOISE_SIGMA=0.456575
MEAS_READ_FAIL=0.998949
MEAS_WRITE_FAIL=2.73962E-06
ngspice-45.2 done
