
Note: No compatibility mode selected!


Circuit: * gf180mcu 6t sram ngspice template (real pdk deck include)

Doing analysis at TEMP = -40.000000 and TNOM = 27.000000

Using SPARSE 1.3 as Direct Linear Solver
Operating point simulation skipped by 'uic',
  now using transient initial conditions.

No. of Data Rows : 5046
vq_hold             =  8.058181e-02
vq_read             =  7.505060e-01
vq_w0               =  6.180140e-01
vq_w1               =  6.702661e-01
snm_proxy           =  2.140329e-03 at=  1.995500e-09
MEAS_CORNER=ss
MEAS_TEMP_K=233.150000
MEAS_VDD=1.620000
MEAS_SNM_MV=1.07016
MEAS_NOISE=0.706661
MEAS_BER=0.999993
MEAS_HOLD_SNM_MV=1.07016
MEAS_READ_SNM_MV=-668.854
MEAS_WRITE_MARGIN_MV=670.266
MEAS_NOISE_SIGMA=0.706661
MEAS_READ_FAIL=1
MEAS_WRITE_FAIL=2.12683E-34
ngspice-45.2 done
