
Note: No compatibility mode selected!


Circuit: * gf180mcu 6t sram ngspice template (real pdk deck include)

Doing analysis at TEMP = 25.000000 and TNOM = 27.000000

Using SPARSE 1.3 as Direct Linear Solver
Operating point simulation skipped by 'uic',
  now using transient initial conditions.

No. of Data Rows : 5045
vq_hold             =  9.993413e-02
vq_read             =  8.144376e-01
vq_w0               =  1.551781e+00
vq_w1               =  1.620000e+00
snm_proxy           =  1.102940e-02 at=  1.000100e-09
MEAS_CORNER=ss
MEAS_TEMP_K=298.150000
MEAS_VDD=1.620000
MEAS_SNM_MV=5.5147
MEAS_NOISE=0.441052
MEAS_BER=0.999989
MEAS_HOLD_SNM_MV=5.5147
MEAS_READ_SNM_MV=-708.989
MEAS_WRITE_MARGIN_MV=1620
MEAS_NOISE_SIGMA=0.441052
MEAS_READ_FAIL=1
MEAS_WRITE_FAIL=5.88448E-86
ngspice-45.2 done
