
Note: No compatibility mode selected!


Circuit: * gf180mcu 6t sram ngspice template (real pdk deck include)

Doing analysis at TEMP = 125.000000 and TNOM = 27.000000

Using SPARSE 1.3 as Direct Linear Solver
Operating point simulation skipped by 'uic',
  now using transient initial conditions.

No. of Data Rows : 5044
vq_hold             =  1.480913e-01
vq_read             =  3.187700e-01
vq_w0               =  2.463676e-07
vq_w1               =  2.203004e-01
snm_proxy           =  9.540768e-03 at=  1.000100e-09
MEAS_CORNER=ss
MEAS_TEMP_K=398.150000
MEAS_VDD=1.800000
MEAS_SNM_MV=4.77038
MEAS_NOISE=0.533627
MEAS_BER=0.99999
MEAS_HOLD_SNM_MV=4.77038
MEAS_READ_SNM_MV=-165.908
MEAS_WRITE_MARGIN_MV=220.3
MEAS_NOISE_SIGMA=0.533627
MEAS_READ_FAIL=1
MEAS_WRITE_FAIL=5.68767E-10
ngspice-45.2 done
