
Note: No compatibility mode selected!


Circuit: * gf180mcu 6t sram ngspice template (real pdk deck include)

Doing analysis at TEMP = 25.000000 and TNOM = 27.000000

Using SPARSE 1.3 as Direct Linear Solver
Operating point simulation skipped by 'uic',
  now using transient initial conditions.

No. of Data Rows : 5045
vq_hold             =  1.271076e-01
vq_read             =  1.866785e-01
vq_w0               =  3.495493e-09
vq_w1               =  1.862627e-01
snm_proxy           =  9.716718e-03 at=  1.000100e-09
MEAS_CORNER=tt
MEAS_TEMP_K=298.150000
MEAS_VDD=1.620000
MEAS_SNM_MV=4.85836
MEAS_NOISE=0.479284
MEAS_BER=0.99999
MEAS_HOLD_SNM_MV=4.85836
MEAS_READ_SNM_MV=-54.7125
MEAS_WRITE_MARGIN_MV=186.263
MEAS_NOISE_SIGMA=0.479284
MEAS_READ_FAIL=0.999998
MEAS_WRITE_FAIL=4.0062E-08
ngspice-45.2 done
