
Note: No compatibility mode selected!


Circuit: * gf180mcu 6t sram ngspice template (real pdk deck include)

Doing analysis at TEMP = 25.000000 and TNOM = 27.000000

Using SPARSE 1.3 as Direct Linear Solver
Operating point simulation skipped by 'uic',
  now using transient initial conditions.

No. of Data Rows : 5047
vq_hold             =  1.685281e-01
vq_read             =  2.412230e-01
vq_w0               =  2.318388e-09
vq_w1               =  2.412226e-01
snm_proxy           =  7.308269e-02 at=  1.000100e-09
MEAS_CORNER=tt
MEAS_TEMP_K=298.150000
MEAS_VDD=1.980000
MEAS_SNM_MV=36.5413
MEAS_NOISE=0.4758
MEAS_BER=0.999763
MEAS_HOLD_SNM_MV=36.5413
MEAS_READ_SNM_MV=-36.1536
MEAS_WRITE_MARGIN_MV=241.223
MEAS_NOISE_SIGMA=0.4758
MEAS_READ_FAIL=0.999979
MEAS_WRITE_FAIL=4.1604E-11
ngspice-45.2 done
