
Note: No compatibility mode selected!


Circuit: * gf180mcu 6t sram ngspice template (real pdk deck include)

Doing analysis at TEMP = -40.000000 and TNOM = 27.000000

Using SPARSE 1.3 as Direct Linear Solver
Operating point simulation skipped by 'uic',
  now using transient initial conditions.

No. of Data Rows : 5047
vq_hold             =  1.201746e-01
vq_read             =  2.010675e-01
vq_w0               =  1.723234e-09
vq_w1               =  2.010646e-01
snm_proxy           =  3.109330e-02 at=  1.000100e-09
MEAS_CORNER=tt
MEAS_TEMP_K=233.150000
MEAS_VDD=1.800000
MEAS_SNM_MV=15.5466
MEAS_NOISE=0.489089
MEAS_BER=0.999971
MEAS_HOLD_SNM_MV=15.5466
MEAS_READ_SNM_MV=-65.3462
MEAS_WRITE_MARGIN_MV=201.065
MEAS_NOISE_SIGMA=0.489089
MEAS_READ_FAIL=0.999999
MEAS_WRITE_FAIL=6.29774E-09
ngspice-45.2 done
