
Note: No compatibility mode selected!


Circuit: * gf180mcu 6t sram ngspice template (real pdk deck include)

Doing analysis at TEMP = 25.000000 and TNOM = 27.000000

Using SPARSE 1.3 as Direct Linear Solver
Operating point simulation skipped by 'uic',
  now using transient initial conditions.

No. of Data Rows : 5046
vq_hold             =  1.642916e-01
vq_read             =  2.342060e-01
vq_w0               =  4.086258e-09
vq_w1               =  2.342059e-01
snm_proxy           =  3.591332e-02 at=  1.000100e-09
MEAS_CORNER=ff
MEAS_TEMP_K=298.150000
MEAS_VDD=1.800000
MEAS_SNM_MV=17.9567
MEAS_NOISE=0.473784
MEAS_BER=0.999963
MEAS_HOLD_SNM_MV=17.9567
MEAS_READ_SNM_MV=-51.9577
MEAS_WRITE_MARGIN_MV=234.206
MEAS_NOISE_SIGMA=0.473784
MEAS_READ_FAIL=0.999997
MEAS_WRITE_FAIL=1.00011E-10
ngspice-45.2 done
