
Note: No compatibility mode selected!


Circuit: * gf180mcu 6t sram ngspice template (real pdk deck include)

Doing analysis at TEMP = 125.000000 and TNOM = 27.000000

Using SPARSE 1.3 as Direct Linear Solver
Operating point simulation skipped by 'uic',
  now using transient initial conditions.

No. of Data Rows : 5046
vq_hold             =  2.207342e-01
vq_read             =  2.955431e-01
vq_w0               =  1.286807e-06
vq_w1               =  2.955429e-01
snm_proxy           =  9.154927e-02 at=  1.000100e-09
MEAS_CORNER=ff
MEAS_TEMP_K=398.150000
MEAS_VDD=1.980000
MEAS_SNM_MV=45.7746
MEAS_NOISE=0.46315
MEAS_BER=0.999403
MEAS_HOLD_SNM_MV=45.7746
MEAS_READ_SNM_MV=-29.0343
MEAS_WRITE_MARGIN_MV=295.543
MEAS_NOISE_SIGMA=0.46315
MEAS_READ_FAIL=0.999949
MEAS_WRITE_FAIL=4.68014E-14
ngspice-45.2 done
