
Note: No compatibility mode selected!


Circuit: * gf180mcu 6t sram ngspice template (real pdk deck include)

Doing analysis at TEMP = 125.000000 and TNOM = 27.000000

Using SPARSE 1.3 as Direct Linear Solver
Operating point simulation skipped by 'uic',
  now using transient initial conditions.

No. of Data Rows : 5044
vq_hold             =  1.865085e-01
vq_read             =  2.647420e-01
vq_w0               =  1.071791e-06
vq_w1               =  2.647230e-01
snm_proxy           =  1.154423e-02 at=  1.000100e-09
MEAS_CORNER=ff
MEAS_TEMP_K=398.150000
MEAS_VDD=1.800000
MEAS_SNM_MV=5.77212
MEAS_NOISE=0.469929
MEAS_BER=0.999989
MEAS_HOLD_SNM_MV=5.77212
MEAS_READ_SNM_MV=-72.4614
MEAS_WRITE_MARGIN_MV=264.723
MEAS_NOISE_SIGMA=0.469929
MEAS_READ_FAIL=1
MEAS_WRITE_FAIL=2.20482E-12
ngspice-45.2 done
