
Note: No compatibility mode selected!


Circuit: * gf180mcu 6t sram ngspice template (real pdk deck include)

Doing analysis at TEMP = 25.000000 and TNOM = 27.000000

Using SPARSE 1.3 as Direct Linear Solver
Operating point simulation skipped by 'uic',
  now using transient initial conditions.

No. of Data Rows : 5047
vq_hold             =  1.853656e-01
vq_read             =  1.979934e+00
vq_w0               =  1.979935e+00
vq_w1               =  1.980000e+00
snm_proxy           =  2.348846e-05 at=  1.001500e-09
MEAS_CORNER=ff
MEAS_TEMP_K=298.150000
MEAS_VDD=1.980000
MEAS_SNM_MV=0.0117442
MEAS_NOISE=0.906348
MEAS_BER=0.999994
MEAS_HOLD_SNM_MV=0.0117442
MEAS_READ_SNM_MV=-1794.56
MEAS_WRITE_MARGIN_MV=1980
MEAS_NOISE_SIGMA=0.906348
MEAS_READ_FAIL=1
MEAS_WRITE_FAIL=1.68444E-105
ngspice-45.2 done
