
Note: No compatibility mode selected!


Circuit: * gf180mcu 6t sram ngspice template (real pdk deck include)

Doing analysis at TEMP = -40.000000 and TNOM = 27.000000

Using SPARSE 1.3 as Direct Linear Solver
Operating point simulation skipped by 'uic',
  now using transient initial conditions.

No. of Data Rows : 5047
vq_hold             =  9.099814e-02
vq_read             =  2.136076e-01
vq_w0               =  1.627580e-09
vq_w1               =  2.125287e-01
snm_proxy           =  1.387935e-02 at=  1.000100e-09
MEAS_CORNER=fs
MEAS_TEMP_K=233.150000
MEAS_VDD=1.800000
MEAS_SNM_MV=6.93967
MEAS_NOISE=0.509081
MEAS_BER=0.999988
MEAS_HOLD_SNM_MV=6.93967
MEAS_READ_SNM_MV=-115.67
MEAS_WRITE_MARGIN_MV=212.529
MEAS_NOISE_SIGMA=0.509081
MEAS_READ_FAIL=1
MEAS_WRITE_FAIL=1.50257E-09
ngspice-45.2 done
