
Note: No compatibility mode selected!


Circuit: * gf180mcu 6t sram ngspice template (real pdk deck include)

Doing analysis at TEMP = -40.000000 and TNOM = 27.000000

Using SPARSE 1.3 as Direct Linear Solver
Operating point simulation skipped by 'uic',
  now using transient initial conditions.

No. of Data Rows : 5047
vq_hold             =  1.133718e-01
vq_read             =  2.390983e-01
vq_w0               =  1.592957e-09
vq_w1               =  2.390978e-01
snm_proxy           =  6.253486e-02 at=  1.000100e-09
MEAS_CORNER=fs
MEAS_TEMP_K=233.150000
MEAS_VDD=1.980000
MEAS_SNM_MV=31.2674
MEAS_NOISE=0.50312
MEAS_BER=0.99986
MEAS_HOLD_SNM_MV=31.2674
MEAS_READ_SNM_MV=-94.4591
MEAS_WRITE_MARGIN_MV=239.098
MEAS_NOISE_SIGMA=0.50312
MEAS_READ_FAIL=1
MEAS_WRITE_FAIL=5.42605E-11
ngspice-45.2 done
