
Note: No compatibility mode selected!


Circuit: * gf180mcu 6t sram ngspice template (real pdk deck include)

Doing analysis at TEMP = 125.000000 and TNOM = 27.000000

Using SPARSE 1.3 as Direct Linear Solver
Operating point simulation skipped by 'uic',
  now using transient initial conditions.

No. of Data Rows : 5044
vq_hold             =  1.320499e-01
vq_read             =  2.552691e-01
vq_w0               =  4.408458e-07
vq_w1               =  2.542026e-01
snm_proxy           =  1.285519e-02 at=  1.000100e-09
MEAS_CORNER=fs
MEAS_TEMP_K=398.150000
MEAS_VDD=1.800000
MEAS_SNM_MV=6.42759
MEAS_NOISE=0.497843
MEAS_BER=0.999988
MEAS_HOLD_SNM_MV=6.42759
MEAS_READ_SNM_MV=-116.792
MEAS_WRITE_MARGIN_MV=254.203
MEAS_NOISE_SIGMA=0.497843
MEAS_READ_FAIL=1
MEAS_WRITE_FAIL=8.21282E-12
ngspice-45.2 done
