
Note: No compatibility mode selected!


Circuit: * gf180mcu 6t sram ngspice template (real pdk deck include)

Doing analysis at TEMP = -40.000000 and TNOM = 27.000000

Using SPARSE 1.3 as Direct Linear Solver
Operating point simulation skipped by 'uic',
  now using transient initial conditions.

No. of Data Rows : 5046
vq_hold             =  6.668362e-02
vq_read             =  2.341891e-01
vq_w0               =  3.434081e-09
vq_w1               =  1.899267e-01
snm_proxy           =  5.479601e-03 at=  1.000100e-09
MEAS_CORNER=fs
MEAS_TEMP_K=233.150000
MEAS_VDD=1.620000
MEAS_SNM_MV=2.7398
MEAS_NOISE=0.544779
MEAS_BER=0.999992
MEAS_HOLD_SNM_MV=2.7398
MEAS_READ_SNM_MV=-164.766
MEAS_WRITE_MARGIN_MV=189.927
MEAS_NOISE_SIGMA=0.544779
MEAS_READ_FAIL=1
MEAS_WRITE_FAIL=2.53411E-08
ngspice-45.2 done
