
Note: No compatibility mode selected!


Circuit: * gf180mcu 6t sram ngspice template (real pdk deck include)

Doing analysis at TEMP = 25.000000 and TNOM = 27.000000

Using SPARSE 1.3 as Direct Linear Solver
Operating point simulation skipped by 'uic',
  now using transient initial conditions.

No. of Data Rows : 5046
vq_hold             =  8.610981e-02
vq_read             =  2.021987e-01
vq_w0               =  1.129938e-08
vq_w1               =  2.007360e-01
snm_proxy           =  3.510843e-02 at=  1.000100e-09
MEAS_CORNER=fs
MEAS_TEMP_K=298.150000
MEAS_VDD=1.620000
MEAS_SNM_MV=17.5542
MEAS_NOISE=0.509704
MEAS_BER=0.999964
MEAS_HOLD_SNM_MV=17.5542
MEAS_READ_SNM_MV=-98.5347
MEAS_WRITE_MARGIN_MV=200.736
MEAS_NOISE_SIGMA=0.509704
MEAS_READ_FAIL=1
MEAS_WRITE_FAIL=6.56181E-09
ngspice-45.2 done
