
Note: No compatibility mode selected!


Circuit: * gf180mcu 6t sram ngspice template (real pdk deck include)

Doing analysis at TEMP = 125.000000 and TNOM = 27.000000

Using SPARSE 1.3 as Direct Linear Solver
Operating point simulation skipped by 'uic',
  now using transient initial conditions.

No. of Data Rows : 5044
vq_hold             =  1.923083e-01
vq_read             =  1.618710e+00
vq_w0               =  1.619989e+00
vq_w1               =  1.620000e+00
snm_proxy           =  1.155684e-05 at=  1.046500e-09
MEAS_CORNER=sf
MEAS_TEMP_K=398.150000
MEAS_VDD=1.620000
MEAS_SNM_MV=0.00577842
MEAS_NOISE=0.880495
MEAS_BER=0.999994
MEAS_HOLD_SNM_MV=0.00577842
MEAS_READ_SNM_MV=-1426.4
MEAS_WRITE_MARGIN_MV=1620
MEAS_NOISE_SIGMA=0.880495
MEAS_READ_FAIL=1
MEAS_WRITE_FAIL=5.88448E-86
ngspice-45.2 done
