
Note: No compatibility mode selected!


Circuit: * gf180mcu 6t sram ngspice template (real pdk deck include)

Doing analysis at TEMP = 125.000000 and TNOM = 27.000000

Using SPARSE 1.3 as Direct Linear Solver
Operating point simulation skipped by 'uic',
  now using transient initial conditions.

No. of Data Rows : 5045
vq_hold             =  2.559887e-01
vq_read             =  2.567941e-01
vq_w0               =  1.116469e-07
vq_w1               =  2.566245e-01
snm_proxy           =  4.413946e-03 at=  1.000100e-09
MEAS_CORNER=sf
MEAS_TEMP_K=398.150000
MEAS_VDD=1.980000
MEAS_SNM_MV=2.20697
MEAS_NOISE=0.435603
MEAS_BER=0.999992
MEAS_HOLD_SNM_MV=2.20697
MEAS_READ_SNM_MV=1.40157
MEAS_WRITE_MARGIN_MV=256.625
MEAS_NOISE_SIGMA=0.435603
MEAS_READ_FAIL=0.997705
MEAS_WRITE_FAIL=6.06757E-12
ngspice-45.2 done
