
Note: No compatibility mode selected!


Circuit: * gf180mcu 6t sram ngspice template (real pdk deck include)

Doing analysis at TEMP = 125.000000 and TNOM = 27.000000

Using SPARSE 1.3 as Direct Linear Solver
Operating point simulation skipped by 'uic',
  now using transient initial conditions.

No. of Data Rows : 5044
vq_hold             =  1.175690e-01
vq_read             =  7.482843e-01
vq_w0               =  1.414451e-04
vq_w1               =  1.937457e-01
snm_proxy           =  2.143560e-05 at=  1.615500e-09
MEAS_CORNER=ss
MEAS_TEMP_K=398.150000
MEAS_VDD=1.620000
MEAS_SNM_MV=0.0107178
MEAS_NOISE=0.829532
MEAS_BER=0.999994
MEAS_HOLD_SNM_MV=0.0107178
MEAS_READ_SNM_MV=-630.705
MEAS_WRITE_MARGIN_MV=193.746
MEAS_NOISE_SIGMA=0.829532
MEAS_READ_FAIL=1
MEAS_WRITE_FAIL=1.57219E-08
ngspice-45.2 done
