
Note: No compatibility mode selected!


Circuit: * gf180mcu 6t sram ngspice template (real pdk deck include)

Doing analysis at TEMP = -40.000000 and TNOM = 27.000000

Using SPARSE 1.3 as Direct Linear Solver
Operating point simulation skipped by 'uic',
  now using transient initial conditions.

No. of Data Rows : 5047
vq_hold             =  1.004123e-01
vq_read             =  1.857768e-01
vq_w0               =  2.348100e-09
vq_w1               =  1.742240e-01
snm_proxy           =  2.611031e-02 at=  1.000100e-09
MEAS_CORNER=ss
MEAS_TEMP_K=233.150000
MEAS_VDD=1.800000
MEAS_SNM_MV=13.0552
MEAS_NOISE=0.499029
MEAS_BER=0.999977
MEAS_HOLD_SNM_MV=13.0552
MEAS_READ_SNM_MV=-72.3093
MEAS_WRITE_MARGIN_MV=174.224
MEAS_NOISE_SIGMA=0.499029
MEAS_READ_FAIL=1
MEAS_WRITE_FAIL=1.80416E-07
ngspice-45.2 done
