
Note: No compatibility mode selected!


Circuit: * gf180mcu 6t sram ngspice template (real pdk deck include)

Doing analysis at TEMP = -40.000000 and TNOM = 27.000000

Using SPARSE 1.3 as Direct Linear Solver
Operating point simulation skipped by 'uic',
  now using transient initial conditions.

No. of Data Rows : 5046
vq_hold             =  7.891983e-02
vq_read             =  6.971363e-01
vq_w0               =  4.956972e-04
vq_w1               =  1.447584e-01
snm_proxy           =  3.192060e-02 at=  1.000100e-09
MEAS_CORNER=ss
MEAS_TEMP_K=233.150000
MEAS_VDD=1.620000
MEAS_SNM_MV=15.9603
MEAS_NOISE=0.836937
MEAS_BER=0.99997
MEAS_HOLD_SNM_MV=15.9603
MEAS_READ_SNM_MV=-602.256
MEAS_WRITE_MARGIN_MV=144.758
MEAS_NOISE_SIGMA=0.836937
MEAS_READ_FAIL=1
MEAS_WRITE_FAIL=7.17572E-06
ngspice-45.2 done
