
Note: No compatibility mode selected!


Circuit: * gf180mcu 6t sram ngspice template (real pdk deck include)

Doing analysis at TEMP = 125.000000 and TNOM = 27.000000

Using SPARSE 1.3 as Direct Linear Solver
Operating point simulation skipped by 'uic',
  now using transient initial conditions.

No. of Data Rows : 5044
vq_hold             =  1.497793e-01
vq_read             =  2.237701e-01
vq_w0               =  7.798841e-08
vq_w1               =  2.217216e-01
snm_proxy           =  2.204340e-02 at=  1.000100e-09
MEAS_CORNER=ss
MEAS_TEMP_K=398.150000
MEAS_VDD=1.800000
MEAS_SNM_MV=11.0217
MEAS_NOISE=0.479517
MEAS_BER=0.999982
MEAS_HOLD_SNM_MV=11.0217
MEAS_READ_SNM_MV=-62.9691
MEAS_WRITE_MARGIN_MV=221.722
MEAS_NOISE_SIGMA=0.479517
MEAS_READ_FAIL=0.999999
MEAS_WRITE_FAIL=4.76192E-10
ngspice-45.2 done
