
Note: No compatibility mode selected!


Circuit: * gf180mcu 6t sram ngspice template (real pdk deck include)

Doing analysis at TEMP = 25.000000 and TNOM = 27.000000

Using SPARSE 1.3 as Direct Linear Solver
Operating point simulation skipped by 'uic',
  now using transient initial conditions.

No. of Data Rows : 5045
vq_hold             =  9.201081e-02
vq_read             =  8.116668e-01
vq_w0               =  1.121701e+00
vq_w1               =  1.619994e+00
snm_proxy           =  5.032193e-03 at=  1.000100e-09
MEAS_CORNER=ss
MEAS_TEMP_K=298.150000
MEAS_VDD=1.620000
MEAS_SNM_MV=2.5161
MEAS_NOISE=0.444234
MEAS_BER=0.999992
MEAS_HOLD_SNM_MV=2.5161
MEAS_READ_SNM_MV=-717.14
MEAS_WRITE_MARGIN_MV=1619.99
MEAS_NOISE_SIGMA=0.444234
MEAS_READ_FAIL=1
MEAS_WRITE_FAIL=5.88889E-86
ngspice-45.2 done
