
Note: No compatibility mode selected!


Circuit: * gf180mcu 6t sram ngspice template (real pdk deck include)

Doing analysis at TEMP = 25.000000 and TNOM = 27.000000

Using SPARSE 1.3 as Direct Linear Solver
Operating point simulation skipped by 'uic',
  now using transient initial conditions.

No. of Data Rows : 5047
vq_hold             =  1.516596e-01
vq_read             =  1.975518e+00
vq_w0               =  1.980000e+00
vq_w1               =  1.980000e+00
snm_proxy           =  9.347532e-03 at=  1.000100e-09
MEAS_CORNER=ss
MEAS_TEMP_K=298.150000
MEAS_VDD=1.980000
MEAS_SNM_MV=4.67377
MEAS_NOISE=0.921141
MEAS_BER=0.99999
MEAS_HOLD_SNM_MV=4.67377
MEAS_READ_SNM_MV=-1819.18
MEAS_WRITE_MARGIN_MV=1980
MEAS_NOISE_SIGMA=0.921141
MEAS_READ_FAIL=1
MEAS_WRITE_FAIL=1.68444E-105
ngspice-45.2 done
