
Note: No compatibility mode selected!


Circuit: * gf180mcu 6t sram ngspice template (real pdk deck include)

Doing analysis at TEMP = 25.000000 and TNOM = 27.000000

Using SPARSE 1.3 as Direct Linear Solver
Operating point simulation skipped by 'uic',
  now using transient initial conditions.

No. of Data Rows : 5047
vq_hold             =  1.680448e-01
vq_read             =  2.423923e-01
vq_w0               =  2.326478e-09
vq_w1               =  2.423881e-01
snm_proxy           =  1.811046e-02 at=  1.000100e-09
MEAS_CORNER=tt
MEAS_TEMP_K=298.150000
MEAS_VDD=1.980000
MEAS_SNM_MV=9.05523
MEAS_NOISE=0.47634
MEAS_BER=0.999985
MEAS_HOLD_SNM_MV=9.05523
MEAS_READ_SNM_MV=-65.2923
MEAS_WRITE_MARGIN_MV=242.388
MEAS_NOISE_SIGMA=0.47634
MEAS_READ_FAIL=0.999999
MEAS_WRITE_FAIL=3.59636E-11
ngspice-45.2 done
