
Note: No compatibility mode selected!


Circuit: * gf180mcu 6t sram ngspice template (real pdk deck include)

Doing analysis at TEMP = 25.000000 and TNOM = 27.000000

Using SPARSE 1.3 as Direct Linear Solver
Operating point simulation skipped by 'uic',
  now using transient initial conditions.

No. of Data Rows : 5046
vq_hold             =  1.425081e-01
vq_read             =  2.211829e-01
vq_w0               =  2.565517e-09
vq_w1               =  2.209229e-01
snm_proxy           =  2.827428e-03 at=  1.000100e-09
MEAS_CORNER=tt
MEAS_TEMP_K=298.150000
MEAS_VDD=1.800000
MEAS_SNM_MV=1.41371
MEAS_NOISE=0.482341
MEAS_BER=0.999993
MEAS_HOLD_SNM_MV=1.41371
MEAS_READ_SNM_MV=-77.2611
MEAS_WRITE_MARGIN_MV=220.923
MEAS_NOISE_SIGMA=0.482341
MEAS_READ_FAIL=1
MEAS_WRITE_FAIL=5.26188E-10
ngspice-45.2 done
