
Note: No compatibility mode selected!


Circuit: * freepdk45/openram 6t sram ngspice template (predictive model include)

Doing analysis at TEMP = 25.000000 and TNOM = 27.000000

Using SPARSE 1.3 as Direct Linear Solver
Operating point simulation skipped by 'uic',
  now using transient initial conditions.

No. of Data Rows : 5040
vq_hold             =  1.022666e-01
vq_read             =  9.995437e-01
vq_w0               =  9.995433e-01
vq_w1               =  9.999862e-01
snm_proxy           =  5.658852e-10 at=  1.000100e-09
MEAS_CORNER=tt
MEAS_TEMP_K=298.150000
MEAS_VDD=1.000000
MEAS_SNM_MV=2.82943E-07
MEAS_NOISE=0.897284
MEAS_BER=0.999994
MEAS_HOLD_SNM_MV=2.82943E-07
MEAS_READ_SNM_MV=-897.277
MEAS_WRITE_MARGIN_MV=999.986
MEAS_NOISE_SIGMA=0.897284
MEAS_READ_FAIL=1
MEAS_WRITE_FAIL=2.68089E-52
ngspice-45.2 done
