
Note: No compatibility mode selected!


Circuit: * gf180mcu 6t sram ngspice template (real pdk deck include)

Doing analysis at TEMP = 25.000000 and TNOM = 27.000000

Using SPARSE 1.3 as Direct Linear Solver
Operating point simulation skipped by 'uic',
  now using transient initial conditions.

No. of Data Rows : 5047
vq_hold             =  1.833575e-01
vq_read             =  2.718493e-01
vq_w0               =  7.563412e-09
vq_w1               =  2.718493e-01
snm_proxy           =  6.366860e-02 at=  1.000100e-09
MEAS_CORNER=ff
MEAS_TEMP_K=298.150000
MEAS_VDD=1.980000
MEAS_SNM_MV=31.8343
MEAS_NOISE=0.476044
MEAS_BER=0.999852
MEAS_HOLD_SNM_MV=31.8343
MEAS_READ_SNM_MV=-56.6575
MEAS_WRITE_MARGIN_MV=271.849
MEAS_NOISE_SIGMA=0.476044
MEAS_READ_FAIL=0.999998
MEAS_WRITE_FAIL=9.04709E-13
ngspice-45.2 done
