
Note: No compatibility mode selected!


Circuit: * gf180mcu 6t sram ngspice template (real pdk deck include)

Doing analysis at TEMP = -40.000000 and TNOM = 27.000000

Using SPARSE 1.3 as Direct Linear Solver
Operating point simulation skipped by 'uic',
  now using transient initial conditions.

No. of Data Rows : 5047
vq_hold             =  1.711676e-01
vq_read             =  2.481532e-01
vq_w0               =  1.554965e-09
vq_w1               =  2.481532e-01
snm_proxy           =  5.691730e-02 at=  1.000100e-09
MEAS_CORNER=ff
MEAS_TEMP_K=233.150000
MEAS_VDD=1.980000
MEAS_SNM_MV=28.4586
MEAS_NOISE=0.476217
MEAS_BER=0.999894
MEAS_HOLD_SNM_MV=28.4586
MEAS_READ_SNM_MV=-48.527
MEAS_WRITE_MARGIN_MV=248.153
MEAS_NOISE_SIGMA=0.476217
MEAS_READ_FAIL=0.999996
MEAS_WRITE_FAIL=1.74942E-11
ngspice-45.2 done
