
Note: No compatibility mode selected!


Circuit: * gf180mcu 6t sram ngspice template (real pdk deck include)

Doing analysis at TEMP = 125.000000 and TNOM = 27.000000

Using SPARSE 1.3 as Direct Linear Solver
Operating point simulation skipped by 'uic',
  now using transient initial conditions.

No. of Data Rows : 5044
vq_hold             =  1.767389e-01
vq_read             =  2.281837e-01
vq_w0               =  1.070372e-06
vq_w1               =  2.281797e-01
snm_proxy           =  4.181537e-02 at=  1.000100e-09
MEAS_CORNER=ff
MEAS_TEMP_K=398.150000
MEAS_VDD=1.620000
MEAS_SNM_MV=20.9077
MEAS_NOISE=0.46133
MEAS_BER=0.99995
MEAS_HOLD_SNM_MV=20.9077
MEAS_READ_SNM_MV=-30.5371
MEAS_WRITE_MARGIN_MV=228.18
MEAS_NOISE_SIGMA=0.46133
MEAS_READ_FAIL=0.999958
MEAS_WRITE_FAIL=2.12419E-10
ngspice-45.2 done
