
Note: No compatibility mode selected!


Circuit: * gf180mcu 6t sram ngspice template (real pdk deck include)

Doing analysis at TEMP = 125.000000 and TNOM = 27.000000

Using SPARSE 1.3 as Direct Linear Solver
Operating point simulation skipped by 'uic',
  now using transient initial conditions.

No. of Data Rows : 5046
vq_hold             =  1.505385e-01
vq_read             =  2.893560e-01
vq_w0               =  5.592723e-07
vq_w1               =  2.886346e-01
snm_proxy           =  1.284390e-02 at=  1.000100e-09
MEAS_CORNER=fs
MEAS_TEMP_K=398.150000
MEAS_VDD=1.980000
MEAS_SNM_MV=6.42195
MEAS_NOISE=0.497222
MEAS_BER=0.999988
MEAS_HOLD_SNM_MV=6.42195
MEAS_READ_SNM_MV=-132.396
MEAS_WRITE_MARGIN_MV=288.635
MEAS_NOISE_SIGMA=0.497222
MEAS_READ_FAIL=1
MEAS_WRITE_FAIL=1.10991E-13
ngspice-45.2 done
