
Note: No compatibility mode selected!


Circuit: * gf180mcu 6t sram ngspice template (real pdk deck include)

Doing analysis at TEMP = 25.000000 and TNOM = 27.000000

Using SPARSE 1.3 as Direct Linear Solver
Operating point simulation skipped by 'uic',
  now using transient initial conditions.

No. of Data Rows : 5046
vq_hold             =  1.076558e-01
vq_read             =  2.315385e-01
vq_w0               =  4.214807e-09
vq_w1               =  2.307841e-01
snm_proxy           =  8.191222e-03 at=  1.000100e-09
MEAS_CORNER=fs
MEAS_TEMP_K=298.150000
MEAS_VDD=1.800000
MEAS_SNM_MV=4.09561
MEAS_NOISE=0.504717
MEAS_BER=0.999991
MEAS_HOLD_SNM_MV=4.09561
MEAS_READ_SNM_MV=-119.787
MEAS_WRITE_MARGIN_MV=230.784
MEAS_NOISE_SIGMA=0.504717
MEAS_READ_FAIL=1
MEAS_WRITE_FAIL=1.53394E-10
ngspice-45.2 done
