
Note: No compatibility mode selected!


Circuit: * gf180mcu 6t sram ngspice template (real pdk deck include)

Doing analysis at TEMP = 25.000000 and TNOM = 27.000000

Using SPARSE 1.3 as Direct Linear Solver
Operating point simulation skipped by 'uic',
  now using transient initial conditions.

No. of Data Rows : 5047
vq_hold             =  1.238211e-01
vq_read             =  2.636514e-01
vq_w0               =  4.039098e-09
vq_w1               =  2.636472e-01
snm_proxy           =  6.231198e-02 at=  1.000100e-09
MEAS_CORNER=fs
MEAS_TEMP_K=298.150000
MEAS_VDD=1.980000
MEAS_SNM_MV=31.156
MEAS_NOISE=0.504044
MEAS_BER=0.999861
MEAS_HOLD_SNM_MV=31.156
MEAS_READ_SNM_MV=-108.674
MEAS_WRITE_MARGIN_MV=263.647
MEAS_NOISE_SIGMA=0.504044
MEAS_READ_FAIL=1
MEAS_WRITE_FAIL=2.52217E-12
ngspice-45.2 done
