
Note: No compatibility mode selected!


Circuit: * gf180mcu 6t sram ngspice template (real pdk deck include)

Doing analysis at TEMP = -40.000000 and TNOM = 27.000000

Using SPARSE 1.3 as Direct Linear Solver
Operating point simulation skipped by 'uic',
  now using transient initial conditions.

No. of Data Rows : 5047
vq_hold             =  9.094538e-02
vq_read             =  2.092626e-01
vq_w0               =  1.594244e-09
vq_w1               =  2.092566e-01
snm_proxy           =  6.813137e-02 at=  1.000100e-09
MEAS_CORNER=fs
MEAS_TEMP_K=233.150000
MEAS_VDD=1.800000
MEAS_SNM_MV=34.0657
MEAS_NOISE=0.507605
MEAS_BER=0.999815
MEAS_HOLD_SNM_MV=34.0657
MEAS_READ_SNM_MV=-84.2515
MEAS_WRITE_MARGIN_MV=209.257
MEAS_NOISE_SIGMA=0.507605
MEAS_READ_FAIL=1
MEAS_WRITE_FAIL=2.26187E-09
ngspice-45.2 done
