
Note: No compatibility mode selected!


Circuit: * gf180mcu 6t sram ngspice template (real pdk deck include)

Doing analysis at TEMP = 125.000000 and TNOM = 27.000000

Using SPARSE 1.3 as Direct Linear Solver
Operating point simulation skipped by 'uic',
  now using transient initial conditions.

No. of Data Rows : 5044
vq_hold             =  1.341011e-01
vq_read             =  2.587565e-01
vq_w0               =  5.692567e-07
vq_w1               =  2.582903e-01
snm_proxy           =  1.865105e-02 at=  1.000100e-09
MEAS_CORNER=fs
MEAS_TEMP_K=398.150000
MEAS_VDD=1.800000
MEAS_SNM_MV=9.32552
MEAS_NOISE=0.497506
MEAS_BER=0.999984
MEAS_HOLD_SNM_MV=9.32552
MEAS_READ_SNM_MV=-115.33
MEAS_WRITE_MARGIN_MV=258.29
MEAS_NOISE_SIGMA=0.497506
MEAS_READ_FAIL=1
MEAS_WRITE_FAIL=4.92702E-12
ngspice-45.2 done
