
Note: No compatibility mode selected!


Circuit: * gf180mcu 6t sram ngspice template (real pdk deck include)

Doing analysis at TEMP = 25.000000 and TNOM = 27.000000

Using SPARSE 1.3 as Direct Linear Solver
Operating point simulation skipped by 'uic',
  now using transient initial conditions.

No. of Data Rows : 5045
vq_hold             =  1.662458e-01
vq_read             =  1.707755e-01
vq_w0               =  2.810681e-09
vq_w1               =  1.689701e-01
snm_proxy           =  8.259074e-03 at=  1.000100e-09
MEAS_CORNER=sf
MEAS_TEMP_K=298.150000
MEAS_VDD=1.620000
MEAS_SNM_MV=4.12954
MEAS_NOISE=0.450645
MEAS_BER=0.999991
MEAS_HOLD_SNM_MV=4.12954
MEAS_READ_SNM_MV=-0.400163
MEAS_WRITE_MARGIN_MV=168.97
MEAS_NOISE_SIGMA=0.450645
MEAS_READ_FAIL=0.998167
MEAS_WRITE_FAIL=3.47931E-07
ngspice-45.2 done
