
Note: No compatibility mode selected!


Circuit: * gf180mcu 6t sram ngspice template (real pdk deck include)

Doing analysis at TEMP = 25.000000 and TNOM = 27.000000

Using SPARSE 1.3 as Direct Linear Solver
Operating point simulation skipped by 'uic',
  now using transient initial conditions.

No. of Data Rows : 5046
vq_hold             =  1.938861e-01
vq_read             =  1.972417e-01
vq_w0               =  2.499773e-09
vq_w1               =  1.972386e-01
snm_proxy           =  2.523499e-02 at=  1.000100e-09
MEAS_CORNER=sf
MEAS_TEMP_K=298.150000
MEAS_VDD=1.800000
MEAS_SNM_MV=12.6175
MEAS_NOISE=0.447076
MEAS_BER=0.999978
MEAS_HOLD_SNM_MV=12.6175
MEAS_READ_SNM_MV=9.26189
MEAS_WRITE_MARGIN_MV=197.239
MEAS_NOISE_SIGMA=0.447076
MEAS_READ_FAIL=0.993893
MEAS_WRITE_FAIL=1.01598E-08
ngspice-45.2 done
