
Note: No compatibility mode selected!


Circuit: * gf180mcu 6t sram ngspice template (real pdk deck include)

Doing analysis at TEMP = 25.000000 and TNOM = 27.000000

Using SPARSE 1.3 as Direct Linear Solver
Operating point simulation skipped by 'uic',
  now using transient initial conditions.

No. of Data Rows : 5046
vq_hold             =  1.247192e-01
vq_read             =  2.051027e-01
vq_w0               =  7.396285e-09
vq_w1               =  1.959131e-01
snm_proxy           =  5.325582e-06 at=  1.007500e-09
MEAS_CORNER=ss
MEAS_TEMP_K=298.150000
MEAS_VDD=1.800000
MEAS_SNM_MV=0.00266279
MEAS_NOISE=0.490237
MEAS_BER=0.999994
MEAS_HOLD_SNM_MV=0.00266279
MEAS_READ_SNM_MV=-80.3808
MEAS_WRITE_MARGIN_MV=195.913
MEAS_NOISE_SIGMA=0.490237
MEAS_READ_FAIL=1
MEAS_WRITE_FAIL=1.19907E-08
ngspice-45.2 done
