
Note: No compatibility mode selected!


Circuit: * gf180mcu 6t sram ngspice template (real pdk deck include)

Doing analysis at TEMP = -40.000000 and TNOM = 27.000000

Using SPARSE 1.3 as Direct Linear Solver
Operating point simulation skipped by 'uic',
  now using transient initial conditions.

No. of Data Rows : 5047
vq_hold             =  1.355127e-01
vq_read             =  2.069461e-01
vq_w0               =  2.021323e-09
vq_w1               =  2.010754e-01
snm_proxy           =  4.747340e-05 at=  1.054500e-09
MEAS_CORNER=ss
MEAS_TEMP_K=233.150000
MEAS_VDD=1.980000
MEAS_SNM_MV=0.0237367
MEAS_NOISE=0.485301
MEAS_BER=0.999994
MEAS_HOLD_SNM_MV=0.0237367
MEAS_READ_SNM_MV=-71.4097
MEAS_WRITE_MARGIN_MV=201.075
MEAS_NOISE_SIGMA=0.485301
MEAS_READ_FAIL=1
MEAS_WRITE_FAIL=6.28924E-09
ngspice-45.2 done
