
Note: No compatibility mode selected!


Circuit: * gf180mcu 6t sram ngspice template (real pdk deck include)

Doing analysis at TEMP = -40.000000 and TNOM = 27.000000

Using SPARSE 1.3 as Direct Linear Solver
Operating point simulation skipped by 'uic',
  now using transient initial conditions.

No. of Data Rows : 5046
vq_hold             =  8.731441e-02
vq_read             =  7.559267e-01
vq_w0               =  6.734901e-01
vq_w1               =  7.749287e-01
snm_proxy           =  9.547329e-05 at=  1.996500e-09
MEAS_CORNER=ss
MEAS_TEMP_K=233.150000
MEAS_VDD=1.620000
MEAS_SNM_MV=0.0477366
MEAS_NOISE=0.673548
MEAS_BER=0.999994
MEAS_HOLD_SNM_MV=0.0477366
MEAS_READ_SNM_MV=-668.565
MEAS_WRITE_MARGIN_MV=774.929
MEAS_NOISE_SIGMA=0.673548
MEAS_READ_FAIL=1
MEAS_WRITE_FAIL=4.4252E-40
ngspice-45.2 done
