
Note: No compatibility mode selected!


Circuit: * gf180mcu 6t sram ngspice template (real pdk deck include)

Doing analysis at TEMP = 25.000000 and TNOM = 27.000000

Using SPARSE 1.3 as Direct Linear Solver
Operating point simulation skipped by 'uic',
  now using transient initial conditions.

No. of Data Rows : 5045
vq_hold             =  1.159789e-01
vq_read             =  1.910927e-01
vq_w0               =  3.785918e-09
vq_w1               =  1.856395e-01
snm_proxy           =  4.617306e-06 at=  1.016500e-09
MEAS_CORNER=tt
MEAS_TEMP_K=298.150000
MEAS_VDD=1.620000
MEAS_SNM_MV=0.00230865
MEAS_NOISE=0.48907
MEAS_BER=0.999994
MEAS_HOLD_SNM_MV=0.00230865
MEAS_READ_SNM_MV=-75.1115
MEAS_WRITE_MARGIN_MV=185.639
MEAS_NOISE_SIGMA=0.48907
MEAS_READ_FAIL=1
MEAS_WRITE_FAIL=4.33076E-08
ngspice-45.2 done
