
Note: No compatibility mode selected!


Circuit: * gf180mcu 6t sram ngspice template (real pdk deck include)

Doing analysis at TEMP = 25.000000 and TNOM = 27.000000

Using SPARSE 1.3 as Direct Linear Solver
Operating point simulation skipped by 'uic',
  now using transient initial conditions.

No. of Data Rows : 5046
vq_hold             =  1.470951e-01
vq_read             =  2.141322e-01
vq_w0               =  2.434116e-09
vq_w1               =  2.141251e-01
snm_proxy           =  3.251558e-02 at=  1.000100e-09
MEAS_CORNER=tt
MEAS_TEMP_K=298.150000
MEAS_VDD=1.800000
MEAS_SNM_MV=16.2578
MEAS_NOISE=0.477764
MEAS_BER=0.999969
MEAS_HOLD_SNM_MV=16.2578
MEAS_READ_SNM_MV=-50.7793
MEAS_WRITE_MARGIN_MV=214.125
MEAS_NOISE_SIGMA=0.477764
MEAS_READ_FAIL=0.999997
MEAS_WRITE_FAIL=1.23076E-09
ngspice-45.2 done
