
Note: No compatibility mode selected!


Circuit: * gf180mcu 6t sram ngspice template (real pdk deck include)

Doing analysis at TEMP = -40.000000 and TNOM = 27.000000

Using SPARSE 1.3 as Direct Linear Solver
Operating point simulation skipped by 'uic',
  now using transient initial conditions.

No. of Data Rows : 5047
vq_hold             =  1.304837e-01
vq_read             =  1.941235e-01
vq_w0               =  1.719644e-09
vq_w1               =  1.941178e-01
snm_proxy           =  1.680646e-02 at=  1.000100e-09
MEAS_CORNER=tt
MEAS_TEMP_K=233.150000
MEAS_VDD=1.800000
MEAS_SNM_MV=8.40323
MEAS_NOISE=0.481434
MEAS_BER=0.999986
MEAS_HOLD_SNM_MV=8.40323
MEAS_READ_SNM_MV=-55.2366
MEAS_WRITE_MARGIN_MV=194.118
MEAS_NOISE_SIGMA=0.481434
MEAS_READ_FAIL=0.999998
MEAS_WRITE_FAIL=1.50074E-08
ngspice-45.2 done
