
Note: No compatibility mode selected!


Circuit: * freepdk45/openram 6t sram ngspice template (predictive model include)

Doing analysis at TEMP = 25.000000 and TNOM = 27.000000

Using SPARSE 1.3 as Direct Linear Solver
Warning: toxe, toxp and dtox all given and toxe != toxp + dtox; dtox ignored.
Operating point simulation skipped by 'uic',
  now using transient initial conditions.

No. of Data Rows : 5040
vq_hold             =  1.222634e-01
vq_read             =  1.665254e-01
vq_w0               =  1.058670e-05
vq_w1               =  1.665255e-01
snm_proxy           =  4.688798e-10 at=  1.000100e-09
MEAS_CORNER=ff
MEAS_TEMP_K=298.150000
MEAS_VDD=1.100000
MEAS_SNM_MV=2.3444E-07
MEAS_NOISE=0.464545
MEAS_BER=0.999994
MEAS_HOLD_SNM_MV=2.3444E-07
MEAS_READ_SNM_MV=-44.262
MEAS_WRITE_MARGIN_MV=166.525
MEAS_NOISE_SIGMA=0.464545
MEAS_READ_FAIL=0.999992
MEAS_WRITE_FAIL=4.72283E-07
ngspice-45.2 done
