
Note: No compatibility mode selected!


Circuit: * freepdk45/openram 6t sram ngspice template (predictive model include)

Doing analysis at TEMP = -40.000000 and TNOM = 27.000000

Using SPARSE 1.3 as Direct Linear Solver
Warning: toxe, toxp and dtox all given and toxe != toxp + dtox; dtox ignored.
Operating point simulation skipped by 'uic',
  now using transient initial conditions.

No. of Data Rows : 5040
vq_hold             =  1.089697e-01
vq_read             =  1.467816e-01
vq_w0               =  2.913929e-06
vq_w1               =  1.467817e-01
snm_proxy           =  1.731156e-09 at=  1.000100e-09
MEAS_CORNER=ff
MEAS_TEMP_K=233.150000
MEAS_VDD=1.100000
MEAS_SNM_MV=8.65578E-07
MEAS_NOISE=0.467655
MEAS_BER=0.999994
MEAS_HOLD_SNM_MV=8.65578E-07
MEAS_READ_SNM_MV=-37.8119
MEAS_WRITE_MARGIN_MV=146.782
MEAS_NOISE_SIGMA=0.467655
MEAS_READ_FAIL=0.999983
MEAS_WRITE_FAIL=5.57221E-06
ngspice-45.2 done
