
Note: No compatibility mode selected!


Circuit: * gf180mcu 6t sram ngspice template (real pdk deck include)

Doing analysis at TEMP = -40.000000 and TNOM = 27.000000

Using SPARSE 1.3 as Direct Linear Solver
Operating point simulation skipped by 'uic',
  now using transient initial conditions.

No. of Data Rows : 5047
vq_hold             =  1.709307e-01
vq_read             =  2.489747e-01
vq_w0               =  1.539049e-09
vq_w1               =  2.489747e-01
snm_proxy           =  2.925534e-02 at=  1.000100e-09
MEAS_CORNER=ff
MEAS_TEMP_K=233.150000
MEAS_VDD=1.980000
MEAS_SNM_MV=14.6277
MEAS_NOISE=0.476544
MEAS_BER=0.999973
MEAS_HOLD_SNM_MV=14.6277
MEAS_READ_SNM_MV=-63.4163
MEAS_WRITE_MARGIN_MV=248.975
MEAS_NOISE_SIGMA=0.476544
MEAS_READ_FAIL=0.999999
MEAS_WRITE_FAIL=1.57869E-11
ngspice-45.2 done
