
Note: No compatibility mode selected!


Circuit: * gf180mcu 6t sram ngspice template (real pdk deck include)

Doing analysis at TEMP = 125.000000 and TNOM = 27.000000

Using SPARSE 1.3 as Direct Linear Solver
Operating point simulation skipped by 'uic',
  now using transient initial conditions.

No. of Data Rows : 5044
vq_hold             =  1.320967e-01
vq_read             =  2.592914e-01
vq_w0               =  6.073186e-07
vq_w1               =  2.558366e-01
snm_proxy           =  3.578513e-05 at=  1.010500e-09
MEAS_CORNER=fs
MEAS_TEMP_K=398.150000
MEAS_VDD=1.800000
MEAS_SNM_MV=0.0178926
MEAS_NOISE=0.499598
MEAS_BER=0.999994
MEAS_HOLD_SNM_MV=0.0178926
MEAS_READ_SNM_MV=-127.177
MEAS_WRITE_MARGIN_MV=255.837
MEAS_NOISE_SIGMA=0.499598
MEAS_READ_FAIL=1
MEAS_WRITE_FAIL=6.69557E-12
ngspice-45.2 done
