
Note: No compatibility mode selected!


Circuit: * gf180mcu 6t sram ngspice template (real pdk deck include)

Doing analysis at TEMP = -40.000000 and TNOM = 27.000000

Using SPARSE 1.3 as Direct Linear Solver
Operating point simulation skipped by 'uic',
  now using transient initial conditions.

No. of Data Rows : 5046
vq_hold             =  7.252469e-02
vq_read             =  6.146774e-01
vq_w0               =  4.924231e-08
vq_w1               =  1.859926e-01
snm_proxy           =  5.311541e-03 at=  1.000100e-09
MEAS_CORNER=fs
MEAS_TEMP_K=233.150000
MEAS_VDD=1.620000
MEAS_SNM_MV=2.65577
MEAS_NOISE=0.777257
MEAS_BER=0.999992
MEAS_HOLD_SNM_MV=2.65577
MEAS_READ_SNM_MV=-539.497
MEAS_WRITE_MARGIN_MV=185.993
MEAS_NOISE_SIGMA=0.777257
MEAS_READ_FAIL=1
MEAS_WRITE_FAIL=4.14377E-08
ngspice-45.2 done
