
Note: No compatibility mode selected!


Circuit: * gf180mcu 6t sram ngspice template (real pdk deck include)

Doing analysis at TEMP = -40.000000 and TNOM = 27.000000

Using SPARSE 1.3 as Direct Linear Solver
Operating point simulation skipped by 'uic',
  now using transient initial conditions.

No. of Data Rows : 5047
vq_hold             =  1.929941e-01
vq_read             =  2.110174e-01
vq_w0               =  1.867585e-09
vq_w1               =  2.110174e-01
snm_proxy           =  3.033575e-02 at=  1.000100e-09
MEAS_CORNER=sf
MEAS_TEMP_K=233.150000
MEAS_VDD=1.980000
MEAS_SNM_MV=15.1679
MEAS_NOISE=0.455815
MEAS_BER=0.999972
MEAS_HOLD_SNM_MV=15.1679
MEAS_READ_SNM_MV=-2.85542
MEAS_WRITE_MARGIN_MV=211.017
MEAS_NOISE_SIGMA=0.455815
MEAS_READ_FAIL=0.998651
MEAS_WRITE_FAIL=1.81501E-09
ngspice-45.2 done
