
Note: No compatibility mode selected!


Circuit: * gf180mcu 6t sram ngspice template (real pdk deck include)

Doing analysis at TEMP = 25.000000 and TNOM = 27.000000

Using SPARSE 1.3 as Direct Linear Solver
Operating point simulation skipped by 'uic',
  now using transient initial conditions.

No. of Data Rows : 5046
vq_hold             =  1.849606e-01
vq_read             =  2.049726e-01
vq_w0               =  2.504227e-09
vq_w1               =  2.049640e-01
snm_proxy           =  8.752082e-03 at=  1.000100e-09
MEAS_CORNER=sf
MEAS_TEMP_K=298.150000
MEAS_VDD=1.800000
MEAS_SNM_MV=4.37604
MEAS_NOISE=0.454183
MEAS_BER=0.99999
MEAS_HOLD_SNM_MV=4.37604
MEAS_READ_SNM_MV=-15.636
MEAS_WRITE_MARGIN_MV=204.964
MEAS_NOISE_SIGMA=0.454183
MEAS_READ_FAIL=0.999727
MEAS_WRITE_FAIL=3.86811E-09
ngspice-45.2 done
