
Note: No compatibility mode selected!


Circuit: * gf180mcu 6t sram ngspice template (real pdk deck include)

Doing analysis at TEMP = 125.000000 and TNOM = 27.000000

Using SPARSE 1.3 as Direct Linear Solver
Operating point simulation skipped by 'uic',
  now using transient initial conditions.

No. of Data Rows : 5045
vq_hold             =  2.558584e-01
vq_read             =  2.547540e-01
vq_w0               =  1.101825e-07
vq_w1               =  2.547522e-01
snm_proxy           =  4.613687e-02 at=  1.000100e-09
MEAS_CORNER=sf
MEAS_TEMP_K=398.150000
MEAS_VDD=1.980000
MEAS_SNM_MV=23.0684
MEAS_NOISE=0.436226
MEAS_BER=0.999938
MEAS_HOLD_SNM_MV=23.0684
MEAS_READ_SNM_MV=21.964
MEAS_WRITE_MARGIN_MV=254.752
MEAS_NOISE_SIGMA=0.436226
MEAS_READ_FAIL=0.970815
MEAS_WRITE_FAIL=7.66754E-12
ngspice-45.2 done
