
Note: No compatibility mode selected!


Circuit: * gf180mcu 6t sram ngspice template (real pdk deck include)

Doing analysis at TEMP = 25.000000 and TNOM = 27.000000

Using SPARSE 1.3 as Direct Linear Solver
Operating point simulation skipped by 'uic',
  now using transient initial conditions.

No. of Data Rows : 5047
vq_hold             =  2.213352e-01
vq_read             =  2.271744e-01
vq_w0               =  2.486330e-09
vq_w1               =  2.271742e-01
snm_proxy           =  2.909234e-02 at=  1.000100e-09
MEAS_CORNER=sf
MEAS_TEMP_K=298.150000
MEAS_VDD=1.980000
MEAS_SNM_MV=14.5462
MEAS_NOISE=0.445582
MEAS_BER=0.999974
MEAS_HOLD_SNM_MV=14.5462
MEAS_READ_SNM_MV=8.70697
MEAS_WRITE_MARGIN_MV=227.174
MEAS_NOISE_SIGMA=0.445582
MEAS_READ_FAIL=0.9943
MEAS_WRITE_FAIL=2.40867E-10
ngspice-45.2 done
