
Note: No compatibility mode selected!


Circuit: * gf180mcu 6t sram ngspice template (real pdk deck include)

Doing analysis at TEMP = -40.000000 and TNOM = 27.000000

Using SPARSE 1.3 as Direct Linear Solver
Operating point simulation skipped by 'uic',
  now using transient initial conditions.

No. of Data Rows : 5047
vq_hold             =  1.232656e-01
vq_read             =  2.083001e-01
vq_w0               =  1.988357e-09
vq_w1               =  2.074468e-01
snm_proxy           =  1.226060e-02 at=  1.000100e-09
MEAS_CORNER=ss
MEAS_TEMP_K=233.150000
MEAS_VDD=1.980000
MEAS_SNM_MV=6.1303
MEAS_NOISE=0.490561
MEAS_BER=0.999989
MEAS_HOLD_SNM_MV=6.1303
MEAS_READ_SNM_MV=-78.9042
MEAS_WRITE_MARGIN_MV=207.447
MEAS_NOISE_SIGMA=0.490561
MEAS_READ_FAIL=1
MEAS_WRITE_FAIL=2.83606E-09
ngspice-45.2 done
