
Note: No compatibility mode selected!


Circuit: * gf180mcu 6t sram ngspice template (real pdk deck include)

Doing analysis at TEMP = 125.000000 and TNOM = 27.000000

Using SPARSE 1.3 as Direct Linear Solver
Operating point simulation skipped by 'uic',
  now using transient initial conditions.

No. of Data Rows : 5045
vq_hold             =  1.872780e-01
vq_read             =  2.507774e-01
vq_w0               =  3.804769e-08
vq_w1               =  2.471085e-01
snm_proxy           =  3.105187e-05 at=  1.053500e-09
MEAS_CORNER=ss
MEAS_TEMP_K=398.150000
MEAS_VDD=1.980000
MEAS_SNM_MV=0.0155259
MEAS_NOISE=0.469669
MEAS_BER=0.999994
MEAS_HOLD_SNM_MV=0.0155259
MEAS_READ_SNM_MV=-63.4839
MEAS_WRITE_MARGIN_MV=247.108
MEAS_NOISE_SIGMA=0.469669
MEAS_READ_FAIL=0.999999
MEAS_WRITE_FAIL=1.99346E-11
ngspice-45.2 done
