
Note: No compatibility mode selected!


Circuit: * gf180mcu 6t sram ngspice template (real pdk deck include)

Doing analysis at TEMP = 125.000000 and TNOM = 27.000000

Using SPARSE 1.3 as Direct Linear Solver
Operating point simulation skipped by 'uic',
  now using transient initial conditions.

No. of Data Rows : 5044
vq_hold             =  1.742610e-01
vq_read             =  2.401974e-01
vq_w0               =  1.139197e-07
vq_w1               =  2.400886e-01
snm_proxy           =  1.813492e-02 at=  1.000100e-09
MEAS_CORNER=tt
MEAS_TEMP_K=398.150000
MEAS_VDD=1.800000
MEAS_SNM_MV=9.06746
MEAS_NOISE=0.46994
MEAS_BER=0.999985
MEAS_HOLD_SNM_MV=9.06746
MEAS_READ_SNM_MV=-56.8689
MEAS_WRITE_MARGIN_MV=240.089
MEAS_NOISE_SIGMA=0.46994
MEAS_READ_FAIL=0.999998
MEAS_WRITE_FAIL=4.79398E-11
ngspice-45.2 done
