
Note: No compatibility mode selected!


Circuit: * gf180mcu 6t sram ngspice template (real pdk deck include)

Doing analysis at TEMP = 25.000000 and TNOM = 27.000000

Using SPARSE 1.3 as Direct Linear Solver
Operating point simulation skipped by 'uic',
  now using transient initial conditions.

No. of Data Rows : 5045
vq_hold             =  1.179096e-01
vq_read             =  1.865558e-01
vq_w0               =  3.513671e-09
vq_w1               =  1.863090e-01
snm_proxy           =  1.792176e-02 at=  1.000100e-09
MEAS_CORNER=tt
MEAS_TEMP_K=298.150000
MEAS_VDD=1.620000
MEAS_SNM_MV=8.96088
MEAS_NOISE=0.484871
MEAS_BER=0.999985
MEAS_HOLD_SNM_MV=8.96088
MEAS_READ_SNM_MV=-59.6853
MEAS_WRITE_MARGIN_MV=186.309
MEAS_NOISE_SIGMA=0.484871
MEAS_READ_FAIL=0.999999
MEAS_WRITE_FAIL=3.98308E-08
ngspice-45.2 done
