
Note: No compatibility mode selected!


Circuit: * freepdk45/openram 6t sram ngspice template (predictive model include)

Doing analysis at TEMP = 125.000000 and TNOM = 27.000000

Using SPARSE 1.3 as Direct Linear Solver
Operating point simulation skipped by 'uic',
  now using transient initial conditions.

No. of Data Rows : 5040
vq_hold             =  1.366689e-01
vq_read             =  1.869022e-01
vq_w0               =  4.176649e-05
vq_w1               =  1.869023e-01
snm_proxy           =  8.118728e-12 at=  1.000100e-09
MEAS_CORNER=tt
MEAS_TEMP_K=398.150000
MEAS_VDD=1.100000
MEAS_SNM_MV=4.05936E-09
MEAS_NOISE=0.460711
MEAS_BER=0.999994
MEAS_HOLD_SNM_MV=4.05936E-09
MEAS_READ_SNM_MV=-50.2333
MEAS_WRITE_MARGIN_MV=186.902
MEAS_NOISE_SIGMA=0.460711
MEAS_READ_FAIL=0.999996
MEAS_WRITE_FAIL=3.69837E-08
ngspice-45.2 done
