
Note: No compatibility mode selected!


Circuit: * gf180mcu 6t sram ngspice template (real pdk deck include)

Doing analysis at TEMP = -40.000000 and TNOM = 27.000000

Using SPARSE 1.3 as Direct Linear Solver
Operating point simulation skipped by 'uic',
  now using transient initial conditions.

No. of Data Rows : 5046
vq_hold             =  1.165008e-01
vq_read             =  1.619999e+00
vq_w0               =  1.620000e+00
vq_w1               =  1.620000e+00
snm_proxy           =  1.827963e-02 at=  1.000100e-09
MEAS_CORNER=ff
MEAS_TEMP_K=233.150000
MEAS_VDD=1.620000
MEAS_SNM_MV=9.13982
MEAS_NOISE=0.928085
MEAS_BER=0.999985
MEAS_HOLD_SNM_MV=9.13982
MEAS_READ_SNM_MV=-1494.36
MEAS_WRITE_MARGIN_MV=1620
MEAS_NOISE_SIGMA=0.928085
MEAS_READ_FAIL=1
MEAS_WRITE_FAIL=5.88448E-86
ngspice-45.2 done
