
Note: No compatibility mode selected!


Circuit: * gf180mcu 6t sram ngspice template (real pdk deck include)

Doing analysis at TEMP = -40.000000 and TNOM = 27.000000

Using SPARSE 1.3 as Direct Linear Solver
Operating point simulation skipped by 'uic',
  now using transient initial conditions.

No. of Data Rows : 5050
vq_hold             =  1.460889e-01
vq_read             =  1.800000e+00
vq_w0               =  1.800000e+00
vq_w1               =  1.800000e+00
snm_proxy           =  3.945553e-02 at=  1.000100e-09
MEAS_CORNER=ff
MEAS_TEMP_K=233.150000
MEAS_VDD=1.800000
MEAS_SNM_MV=19.7278
MEAS_NOISE=0.918839
MEAS_BER=0.999956
MEAS_HOLD_SNM_MV=19.7278
MEAS_READ_SNM_MV=-1634.18
MEAS_WRITE_MARGIN_MV=1800
MEAS_NOISE_SIGMA=0.918839
MEAS_READ_FAIL=1
MEAS_WRITE_FAIL=9.95594E-96
ngspice-45.2 done
