
Note: No compatibility mode selected!


Circuit: * gf180mcu 6t sram ngspice template (real pdk deck include)

Doing analysis at TEMP = 125.000000 and TNOM = 27.000000

Using SPARSE 1.3 as Direct Linear Solver
Operating point simulation skipped by 'uic',
  now using transient initial conditions.

No. of Data Rows : 5044
vq_hold             =  1.968392e-01
vq_read             =  1.797874e+00
vq_w0               =  1.797901e+00
vq_w1               =  1.799992e+00
snm_proxy           =  3.113559e-02 at=  1.000100e-09
MEAS_CORNER=ff
MEAS_TEMP_K=398.150000
MEAS_VDD=1.800000
MEAS_SNM_MV=15.5678
MEAS_NOISE=0.889466
MEAS_BER=0.999971
MEAS_HOLD_SNM_MV=15.5678
MEAS_READ_SNM_MV=-1585.47
MEAS_WRITE_MARGIN_MV=1799.99
MEAS_NOISE_SIGMA=0.889466
MEAS_READ_FAIL=1
MEAS_WRITE_FAIL=9.9659E-96
ngspice-45.2 done
