
Note: No compatibility mode selected!


Circuit: * gf180mcu 6t sram ngspice template (real pdk deck include)

Doing analysis at TEMP = 25.000000 and TNOM = 27.000000

Using SPARSE 1.3 as Direct Linear Solver
Operating point simulation skipped by 'uic',
  now using transient initial conditions.

No. of Data Rows : 5047
vq_hold             =  1.267068e-01
vq_read             =  2.582881e-01
vq_w0               =  3.501986e-09
vq_w1               =  2.582860e-01
snm_proxy           =  9.085906e-02 at=  1.000100e-09
MEAS_CORNER=fs
MEAS_TEMP_K=298.150000
MEAS_VDD=1.980000
MEAS_SNM_MV=45.4295
MEAS_NOISE=0.501231
MEAS_BER=0.999423
MEAS_HOLD_SNM_MV=45.4295
MEAS_READ_SNM_MV=-86.1518
MEAS_WRITE_MARGIN_MV=258.286
MEAS_NOISE_SIGMA=0.501231
MEAS_READ_FAIL=1
MEAS_WRITE_FAIL=4.92967E-12
ngspice-45.2 done
