
Note: No compatibility mode selected!


Circuit: * gf180mcu 6t sram ngspice template (real pdk deck include)

Doing analysis at TEMP = 25.000000 and TNOM = 27.000000

Using SPARSE 1.3 as Direct Linear Solver
Operating point simulation skipped by 'uic',
  now using transient initial conditions.

No. of Data Rows : 5046
vq_hold             =  8.019750e-02
vq_read             =  2.064606e-01
vq_w0               =  1.259553e-08
vq_w1               =  1.987597e-01
snm_proxy           =  1.746866e-02 at=  1.000100e-09
MEAS_CORNER=fs
MEAS_TEMP_K=298.150000
MEAS_VDD=1.620000
MEAS_SNM_MV=8.73433
MEAS_NOISE=0.516595
MEAS_BER=0.999985
MEAS_HOLD_SNM_MV=8.73433
MEAS_READ_SNM_MV=-117.529
MEAS_WRITE_MARGIN_MV=198.76
MEAS_NOISE_SIGMA=0.516595
MEAS_READ_FAIL=1
MEAS_WRITE_FAIL=8.4006E-09
ngspice-45.2 done
