
Note: No compatibility mode selected!


Circuit: * gf180mcu 6t sram ngspice template (real pdk deck include)

Doing analysis at TEMP = 125.000000 and TNOM = 27.000000

Using SPARSE 1.3 as Direct Linear Solver
Operating point simulation skipped by 'uic',
  now using transient initial conditions.

No. of Data Rows : 5044
vq_hold             =  1.297163e-01
vq_read             =  2.600377e-01
vq_w0               =  4.824319e-07
vq_w1               =  2.563580e-01
snm_proxy           =  4.255526e-03 at=  1.000100e-09
MEAS_CORNER=fs
MEAS_TEMP_K=398.150000
MEAS_VDD=1.800000
MEAS_SNM_MV=2.12776
MEAS_NOISE=0.50119
MEAS_BER=0.999992
MEAS_HOLD_SNM_MV=2.12776
MEAS_READ_SNM_MV=-128.194
MEAS_WRITE_MARGIN_MV=256.358
MEAS_NOISE_SIGMA=0.50119
MEAS_READ_FAIL=1
MEAS_WRITE_FAIL=6.2731E-12
ngspice-45.2 done
