
Note: No compatibility mode selected!


Circuit: * gf180mcu 6t sram ngspice template (real pdk deck include)

Doing analysis at TEMP = 25.000000 and TNOM = 27.000000

Using SPARSE 1.3 as Direct Linear Solver
Operating point simulation skipped by 'uic',
  now using transient initial conditions.

No. of Data Rows : 5046
vq_hold             =  9.918632e-02
vq_read             =  2.334240e-01
vq_w0               =  4.141838e-09
vq_w1               =  2.322284e-01
snm_proxy           =  2.355748e-02 at=  1.000100e-09
MEAS_CORNER=fs
MEAS_TEMP_K=298.150000
MEAS_VDD=1.800000
MEAS_SNM_MV=11.7787
MEAS_NOISE=0.510069
MEAS_BER=0.99998
MEAS_HOLD_SNM_MV=11.7787
MEAS_READ_SNM_MV=-122.459
MEAS_WRITE_MARGIN_MV=232.228
MEAS_NOISE_SIGMA=0.510069
MEAS_READ_FAIL=1
MEAS_WRITE_FAIL=1.28056E-10
ngspice-45.2 done
