
Note: No compatibility mode selected!


Circuit: * gf180mcu 6t sram ngspice template (real pdk deck include)

Doing analysis at TEMP = 125.000000 and TNOM = 27.000000

Using SPARSE 1.3 as Direct Linear Solver
Operating point simulation skipped by 'uic',
  now using transient initial conditions.

No. of Data Rows : 5044
vq_hold             =  2.210753e-01
vq_read             =  2.265662e-01
vq_w0               =  9.484726e-08
vq_w1               =  2.265507e-01
snm_proxy           =  2.824404e-02 at=  1.000100e-09
MEAS_CORNER=sf
MEAS_TEMP_K=398.150000
MEAS_VDD=1.800000
MEAS_SNM_MV=14.122
MEAS_NOISE=0.44012
MEAS_BER=0.999975
MEAS_HOLD_SNM_MV=14.122
MEAS_READ_SNM_MV=8.63112
MEAS_WRITE_MARGIN_MV=226.551
MEAS_NOISE_SIGMA=0.44012
MEAS_READ_FAIL=0.994354
MEAS_WRITE_FAIL=2.60391E-10
ngspice-45.2 done
