
Note: No compatibility mode selected!


Circuit: * gf180mcu 6t sram ngspice template (real pdk deck include)

Doing analysis at TEMP = -40.000000 and TNOM = 27.000000

Using SPARSE 1.3 as Direct Linear Solver
Operating point simulation skipped by 'uic',
  now using transient initial conditions.

No. of Data Rows : 5047
vq_hold             =  1.904206e-01
vq_read             =  2.103922e-01
vq_w0               =  1.882681e-09
vq_w1               =  2.103922e-01
snm_proxy           =  5.766773e-02 at=  1.000100e-09
MEAS_CORNER=sf
MEAS_TEMP_K=233.150000
MEAS_VDD=1.980000
MEAS_SNM_MV=28.8339
MEAS_NOISE=0.456957
MEAS_BER=0.99989
MEAS_HOLD_SNM_MV=28.8339
MEAS_READ_SNM_MV=8.86226
MEAS_WRITE_MARGIN_MV=210.392
MEAS_NOISE_SIGMA=0.456957
MEAS_READ_FAIL=0.994189
MEAS_WRITE_FAIL=1.96254E-09
ngspice-45.2 done
