
Note: No compatibility mode selected!


Circuit: * gf180mcu 6t sram ngspice template (real pdk deck include)

Doing analysis at TEMP = 25.000000 and TNOM = 27.000000

Using SPARSE 1.3 as Direct Linear Solver
Operating point simulation skipped by 'uic',
  now using transient initial conditions.

No. of Data Rows : 5047
vq_hold             =  2.148232e-01
vq_read             =  2.213481e-01
vq_w0               =  2.409729e-09
vq_w1               =  2.213481e-01
snm_proxy           =  7.685325e-02 at=  1.000100e-09
MEAS_CORNER=sf
MEAS_TEMP_K=298.150000
MEAS_VDD=1.980000
MEAS_SNM_MV=38.4266
MEAS_NOISE=0.447399
MEAS_BER=0.999713
MEAS_HOLD_SNM_MV=38.4266
MEAS_READ_SNM_MV=31.9017
MEAS_WRITE_MARGIN_MV=221.348
MEAS_NOISE_SIGMA=0.447399
MEAS_READ_FAIL=0.905705
MEAS_WRITE_FAIL=4.98951E-10
ngspice-45.2 done
