
Note: No compatibility mode selected!


Circuit: * gf180mcu 6t sram ngspice template (real pdk deck include)

Doing analysis at TEMP = 125.000000 and TNOM = 27.000000

Using SPARSE 1.3 as Direct Linear Solver
Operating point simulation skipped by 'uic',
  now using transient initial conditions.

No. of Data Rows : 5044
vq_hold             =  1.612446e-01
vq_read             =  2.759329e-01
vq_w0               =  2.017988e-07
vq_w1               =  2.145592e-01
snm_proxy           =  1.370152e-04 at=  1.000100e-09
MEAS_CORNER=ss
MEAS_TEMP_K=398.150000
MEAS_VDD=1.800000
MEAS_SNM_MV=0.0685076
MEAS_NOISE=0.504116
MEAS_BER=0.999994
MEAS_HOLD_SNM_MV=0.0685076
MEAS_READ_SNM_MV=-114.62
MEAS_WRITE_MARGIN_MV=214.559
MEAS_NOISE_SIGMA=0.504116
MEAS_READ_FAIL=1
MEAS_WRITE_FAIL=1.16575E-09
ngspice-45.2 done
