
Note: No compatibility mode selected!


Circuit: * gf180mcu 6t sram ngspice template (real pdk deck include)

Doing analysis at TEMP = 25.000000 and TNOM = 27.000000

Using SPARSE 1.3 as Direct Linear Solver
Operating point simulation skipped by 'uic',
  now using transient initial conditions.

No. of Data Rows : 5046
vq_hold             =  1.217494e-01
vq_read             =  7.563694e-01
vq_w0               =  8.565527e-07
vq_w1               =  2.030674e-01
snm_proxy           =  4.930092e-06 at=  1.193500e-09
MEAS_CORNER=ss
MEAS_TEMP_K=298.150000
MEAS_VDD=1.800000
MEAS_SNM_MV=0.00246505
MEAS_NOISE=0.796159
MEAS_BER=0.999994
MEAS_HOLD_SNM_MV=0.00246505
MEAS_READ_SNM_MV=-634.618
MEAS_WRITE_MARGIN_MV=203.067
MEAS_NOISE_SIGMA=0.796159
MEAS_READ_FAIL=1
MEAS_WRITE_FAIL=4.90297E-09
ngspice-45.2 done
