
Note: No compatibility mode selected!


Circuit: * gf180mcu 6t sram ngspice template (real pdk deck include)

Doing analysis at TEMP = 25.000000 and TNOM = 27.000000

Using SPARSE 1.3 as Direct Linear Solver
Operating point simulation skipped by 'uic',
  now using transient initial conditions.

No. of Data Rows : 5047
vq_hold             =  1.427795e-01
vq_read             =  6.549031e-01
vq_w0               =  1.492653e-08
vq_w1               =  2.254696e-01
snm_proxy           =  5.064284e-03 at=  1.000100e-09
MEAS_CORNER=ss
MEAS_TEMP_K=298.150000
MEAS_VDD=1.980000
MEAS_SNM_MV=2.53214
MEAS_NOISE=0.701712
MEAS_BER=0.999992
MEAS_HOLD_SNM_MV=2.53214
MEAS_READ_SNM_MV=-509.591
MEAS_WRITE_MARGIN_MV=225.47
MEAS_NOISE_SIGMA=0.701712
MEAS_READ_FAIL=1
MEAS_WRITE_FAIL=2.98068E-10
ngspice-45.2 done
