
Note: No compatibility mode selected!


Circuit: * gf180mcu 6t sram ngspice template (real pdk deck include)

Doing analysis at TEMP = 25.000000 and TNOM = 27.000000

Using SPARSE 1.3 as Direct Linear Solver
Operating point simulation skipped by 'uic',
  now using transient initial conditions.

No. of Data Rows : 5045
vq_hold             =  1.174204e-01
vq_read             =  2.103900e-01
vq_w0               =  4.260222e-09
vq_w1               =  1.928568e-01
snm_proxy           =  3.026276e-05 at=  1.041500e-09
MEAS_CORNER=tt
MEAS_TEMP_K=298.150000
MEAS_VDD=1.620000
MEAS_SNM_MV=0.0151314
MEAS_NOISE=0.497865
MEAS_BER=0.999994
MEAS_HOLD_SNM_MV=0.0151314
MEAS_READ_SNM_MV=-92.9545
MEAS_WRITE_MARGIN_MV=192.857
MEAS_NOISE_SIGMA=0.497865
MEAS_READ_FAIL=1
MEAS_WRITE_FAIL=1.75695E-08
ngspice-45.2 done
