
Note: No compatibility mode selected!


Circuit: * gf180mcu 6t sram ngspice template (real pdk deck include)

Doing analysis at TEMP = 25.000000 and TNOM = 27.000000

Using SPARSE 1.3 as Direct Linear Solver
Operating point simulation skipped by 'uic',
  now using transient initial conditions.

No. of Data Rows : 5046
vq_hold             =  1.490332e-01
vq_read             =  2.209634e-01
vq_w0               =  2.604627e-09
vq_w1               =  2.209092e-01
snm_proxy           =  7.960977e-05 at=  1.011500e-09
MEAS_CORNER=tt
MEAS_TEMP_K=298.150000
MEAS_VDD=1.800000
MEAS_SNM_MV=0.0398049
MEAS_NOISE=0.478598
MEAS_BER=0.999994
MEAS_HOLD_SNM_MV=0.0398049
MEAS_READ_SNM_MV=-71.8904
MEAS_WRITE_MARGIN_MV=220.909
MEAS_NOISE_SIGMA=0.478598
MEAS_READ_FAIL=1
MEAS_WRITE_FAIL=5.2709E-10
ngspice-45.2 done
