
Note: No compatibility mode selected!


Circuit: * gf180mcu 6t sram ngspice template (real pdk deck include)

Doing analysis at TEMP = -40.000000 and TNOM = 27.000000

Using SPARSE 1.3 as Direct Linear Solver
Operating point simulation skipped by 'uic',
  now using transient initial conditions.

No. of Data Rows : 5047
vq_hold             =  1.323694e-01
vq_read             =  1.910175e-01
vq_w0               =  1.697465e-09
vq_w1               =  1.910168e-01
snm_proxy           =  4.701886e-02 at=  1.000100e-09
MEAS_CORNER=tt
MEAS_TEMP_K=233.150000
MEAS_VDD=1.800000
MEAS_SNM_MV=23.5094
MEAS_NOISE=0.479522
MEAS_BER=0.999936
MEAS_HOLD_SNM_MV=23.5094
MEAS_READ_SNM_MV=-35.1387
MEAS_WRITE_MARGIN_MV=191.017
MEAS_NOISE_SIGMA=0.479522
MEAS_READ_FAIL=0.999976
MEAS_WRITE_FAIL=2.2113E-08
ngspice-45.2 done
