
Note: No compatibility mode selected!


Circuit: * gf180mcu 6t sram ngspice template (real pdk deck include)

Doing analysis at TEMP = -40.000000 and TNOM = 27.000000

Using SPARSE 1.3 as Direct Linear Solver
Operating point simulation skipped by 'uic',
  now using transient initial conditions.

No. of Data Rows : 5047
vq_hold             =  1.472700e-01
vq_read             =  2.192172e-01
vq_w0               =  1.716303e-09
vq_w1               =  2.192172e-01
snm_proxy           =  1.031062e-01 at=  1.000100e-09
MEAS_CORNER=tt
MEAS_TEMP_K=233.150000
MEAS_VDD=1.980000
MEAS_SNM_MV=51.5531
MEAS_NOISE=0.480979
MEAS_BER=0.998936
MEAS_HOLD_SNM_MV=51.5531
MEAS_READ_SNM_MV=-20.3941
MEAS_WRITE_MARGIN_MV=219.217
MEAS_NOISE_SIGMA=0.480979
MEAS_READ_FAIL=0.999849
MEAS_WRITE_FAIL=6.51235E-10
ngspice-45.2 done
