
Note: No compatibility mode selected!


Circuit: * freepdk45/openram 6t sram ngspice template (predictive model include)

Doing analysis at TEMP = -40.000000 and TNOM = 27.000000

Using SPARSE 1.3 as Direct Linear Solver
Warning: toxe, toxp and dtox all given and toxe != toxp + dtox; dtox ignored.
Operating point simulation skipped by 'uic',
  now using transient initial conditions.

No. of Data Rows : 5040
vq_hold             =  8.407277e-02
vq_read             =  9.999800e-01
vq_w0               =  9.999799e-01
vq_w1               =  9.999986e-01
snm_proxy           =  3.710160e-09 at=  1.000100e-09
MEAS_CORNER=ss
MEAS_TEMP_K=233.150000
MEAS_VDD=1.000000
MEAS_SNM_MV=1.85508E-06
MEAS_NOISE=0.915908
MEAS_BER=0.999994
MEAS_HOLD_SNM_MV=1.85508E-06
MEAS_READ_SNM_MV=-915.907
MEAS_WRITE_MARGIN_MV=999.999
MEAS_NOISE_SIGMA=0.915908
MEAS_READ_FAIL=1
MEAS_WRITE_FAIL=2.67674E-52
ngspice-45.2 done
