
Note: No compatibility mode selected!


Circuit: * freepdk45/openram 6t sram ngspice template (predictive model include)

Doing analysis at TEMP = 25.000000 and TNOM = 27.000000

Using SPARSE 1.3 as Direct Linear Solver
Warning: toxe, toxp and dtox all given and toxe != toxp + dtox; dtox ignored.
Operating point simulation skipped by 'uic',
  now using transient initial conditions.

No. of Data Rows : 5040
vq_hold             =  8.352723e-02
vq_read             =  8.998991e-01
vq_w0               =  8.998989e-01
vq_w1               =  8.999943e-01
snm_proxy           =  4.174966e-10 at=  1.000100e-09
MEAS_CORNER=ss
MEAS_TEMP_K=298.150000
MEAS_VDD=0.900000
MEAS_SNM_MV=2.08748E-07
MEAS_NOISE=0.907083
MEAS_BER=0.999994
MEAS_HOLD_SNM_MV=2.08748E-07
MEAS_READ_SNM_MV=-816.372
MEAS_WRITE_MARGIN_MV=899.994
MEAS_NOISE_SIGMA=0.907083
MEAS_READ_FAIL=1
MEAS_WRITE_FAIL=7.18655E-47
ngspice-45.2 done
