
Note: No compatibility mode selected!


Circuit: * freepdk45/openram 6t sram ngspice template (predictive model include)

Doing analysis at TEMP = 25.000000 and TNOM = 27.000000

Using SPARSE 1.3 as Direct Linear Solver
Warning: toxe, toxp and dtox all given and toxe != toxp + dtox; dtox ignored.
Operating point simulation skipped by 'uic',
  now using transient initial conditions.

No. of Data Rows : 5040
vq_hold             =  1.140736e-01
vq_read             =  1.552357e-01
vq_w0               =  2.460866e-06
vq_w1               =  1.552358e-01
snm_proxy           =  3.004952e-11 at=  1.000100e-09
MEAS_CORNER=ss
MEAS_TEMP_K=298.150000
MEAS_VDD=1.100000
MEAS_SNM_MV=1.50248E-08
MEAS_NOISE=0.466858
MEAS_BER=0.999994
MEAS_HOLD_SNM_MV=1.50248E-08
MEAS_READ_SNM_MV=-41.1621
MEAS_WRITE_MARGIN_MV=155.236
MEAS_NOISE_SIGMA=0.466858
MEAS_READ_FAIL=0.999989
MEAS_WRITE_FAIL=1.93679E-06
ngspice-45.2 done
