
Note: No compatibility mode selected!


Circuit: * freepdk45/openram 6t sram ngspice template (predictive model include)

Doing analysis at TEMP = 25.000000 and TNOM = 27.000000

Using SPARSE 1.3 as Direct Linear Solver
Operating point simulation skipped by 'uic',
  now using transient initial conditions.

No. of Data Rows : 5040
vq_hold             =  1.177816e-01
vq_read             =  1.099128e+00
vq_w0               =  1.099127e+00
vq_w1               =  1.099981e+00
snm_proxy           =  9.543309e-10 at=  1.000100e-09
MEAS_CORNER=tt
MEAS_TEMP_K=298.150000
MEAS_VDD=1.100000
MEAS_SNM_MV=4.77165E-07
MEAS_NOISE=0.892142
MEAS_BER=0.999994
MEAS_HOLD_SNM_MV=4.77165E-07
MEAS_READ_SNM_MV=-981.346
MEAS_WRITE_MARGIN_MV=1099.98
MEAS_NOISE_SIGMA=0.892142
MEAS_READ_FAIL=1
MEAS_WRITE_FAIL=9.99725E-58
ngspice-45.2 done
