
Note: No compatibility mode selected!


Circuit: * gf180mcu 6t sram ngspice template (real pdk deck include)

Doing analysis at TEMP = 125.000000 and TNOM = 27.000000

Using SPARSE 1.3 as Direct Linear Solver
Operating point simulation skipped by 'uic',
  now using transient initial conditions.

No. of Data Rows : 5044
vq_hold             =  1.625655e-01
vq_read             =  2.332474e-01
vq_w0               =  9.415662e-07
vq_w1               =  2.330730e-01
snm_proxy           =  7.070699e-03 at=  1.000100e-09
MEAS_CORNER=ff
MEAS_TEMP_K=398.150000
MEAS_VDD=1.620000
MEAS_SNM_MV=3.53535
MEAS_NOISE=0.471695
MEAS_BER=0.999991
MEAS_HOLD_SNM_MV=3.53535
MEAS_READ_SNM_MV=-67.1466
MEAS_WRITE_MARGIN_MV=233.073
MEAS_NOISE_SIGMA=0.471695
MEAS_READ_FAIL=1
MEAS_WRITE_FAIL=1.15226E-10
ngspice-45.2 done
