
Note: No compatibility mode selected!


Circuit: * gf180mcu 6t sram ngspice template (real pdk deck include)

Doing analysis at TEMP = -40.000000 and TNOM = 27.000000

Using SPARSE 1.3 as Direct Linear Solver
Operating point simulation skipped by 'uic',
  now using transient initial conditions.

No. of Data Rows : 5047
vq_hold             =  1.762526e-01
vq_read             =  2.382815e-01
vq_w0               =  1.539867e-09
vq_w1               =  2.382815e-01
snm_proxy           =  8.138347e-02 at=  1.000100e-09
MEAS_CORNER=ff
MEAS_TEMP_K=233.150000
MEAS_VDD=1.980000
MEAS_SNM_MV=40.6917
MEAS_NOISE=0.471156
MEAS_BER=0.999641
MEAS_HOLD_SNM_MV=40.6917
MEAS_READ_SNM_MV=-21.3372
MEAS_WRITE_MARGIN_MV=238.282
MEAS_NOISE_SIGMA=0.471156
MEAS_READ_FAIL=0.999866
MEAS_WRITE_FAIL=6.00894E-11
ngspice-45.2 done
