
Note: No compatibility mode selected!


Circuit: * gf180mcu 6t sram ngspice template (real pdk deck include)

Doing analysis at TEMP = 125.000000 and TNOM = 27.000000

Using SPARSE 1.3 as Direct Linear Solver
Operating point simulation skipped by 'uic',
  now using transient initial conditions.

No. of Data Rows : 5044
vq_hold             =  2.255278e-01
vq_read             =  2.254701e-01
vq_w0               =  1.197375e-07
vq_w1               =  2.254330e-01
snm_proxy           =  8.919350e-03 at=  1.000100e-09
MEAS_CORNER=sf
MEAS_TEMP_K=398.150000
MEAS_VDD=1.800000
MEAS_SNM_MV=4.45967
MEAS_NOISE=0.437412
MEAS_BER=0.99999
MEAS_HOLD_SNM_MV=4.45967
MEAS_READ_SNM_MV=4.40197
MEAS_WRITE_MARGIN_MV=225.433
MEAS_NOISE_SIGMA=0.437412
MEAS_READ_FAIL=0.996664
MEAS_WRITE_FAIL=2.99435E-10
ngspice-45.2 done
