
Note: No compatibility mode selected!


Circuit: * gf180mcu 6t sram ngspice template (real pdk deck include)

Doing analysis at TEMP = -40.000000 and TNOM = 27.000000

Using SPARSE 1.3 as Direct Linear Solver
Operating point simulation skipped by 'uic',
  now using transient initial conditions.

No. of Data Rows : 5046
vq_hold             =  1.406449e-01
vq_read             =  1.559813e-01
vq_w0               =  1.926657e-09
vq_w1               =  1.556390e-01
snm_proxy           =  1.952655e-05 at=  1.076500e-09
MEAS_CORNER=sf
MEAS_TEMP_K=233.150000
MEAS_VDD=1.620000
MEAS_SNM_MV=0.00976328
MEAS_NOISE=0.46143
MEAS_BER=0.999994
MEAS_HOLD_SNM_MV=0.00976328
MEAS_READ_SNM_MV=-15.3266
MEAS_WRITE_MARGIN_MV=155.639
MEAS_NOISE_SIGMA=0.46143
MEAS_READ_FAIL=0.999716
MEAS_WRITE_FAIL=1.8416E-06
ngspice-45.2 done
