
Note: No compatibility mode selected!


Circuit: * gf180mcu 6t sram ngspice template (real pdk deck include)

Doing analysis at TEMP = -40.000000 and TNOM = 27.000000

Using SPARSE 1.3 as Direct Linear Solver
Operating point simulation skipped by 'uic',
  now using transient initial conditions.

No. of Data Rows : 5046
vq_hold             =  8.120948e-02
vq_read             =  7.236967e-01
vq_w0               =  4.112013e-01
vq_w1               =  1.457204e-01
snm_proxy           =  6.273744e-03 at=  1.000100e-09
MEAS_CORNER=ss
MEAS_TEMP_K=233.150000
MEAS_VDD=1.620000
MEAS_SNM_MV=3.13687
MEAS_NOISE=0.851622
MEAS_BER=0.999992
MEAS_HOLD_SNM_MV=3.13687
MEAS_READ_SNM_MV=-639.35
MEAS_WRITE_MARGIN_MV=145.72
MEAS_NOISE_SIGMA=0.851622
MEAS_READ_FAIL=1
MEAS_WRITE_FAIL=6.36271E-06
ngspice-45.2 done
