
Note: No compatibility mode selected!


Circuit: * gf180mcu 6t sram ngspice template (real pdk deck include)

Doing analysis at TEMP = 25.000000 and TNOM = 27.000000

Using SPARSE 1.3 as Direct Linear Solver
Operating point simulation skipped by 'uic',
  now using transient initial conditions.

No. of Data Rows : 5045
vq_hold             =  9.572073e-02
vq_read             =  6.278568e-01
vq_w0               =  3.717680e-06
vq_w1               =  1.672824e-01
snm_proxy           =  1.074549e-02 at=  1.000100e-09
MEAS_CORNER=ss
MEAS_TEMP_K=298.150000
MEAS_VDD=1.620000
MEAS_SNM_MV=5.37275
MEAS_NOISE=0.776849
MEAS_BER=0.999989
MEAS_HOLD_SNM_MV=5.37275
MEAS_READ_SNM_MV=-526.763
MEAS_WRITE_MARGIN_MV=167.282
MEAS_NOISE_SIGMA=0.776849
MEAS_READ_FAIL=1
MEAS_WRITE_FAIL=4.29648E-07
ngspice-45.2 done
