
Note: No compatibility mode selected!


Circuit: * gf180mcu 6t sram ngspice template (real pdk deck include)

Doing analysis at TEMP = 25.000000 and TNOM = 27.000000

Using SPARSE 1.3 as Direct Linear Solver
Operating point simulation skipped by 'uic',
  now using transient initial conditions.

No. of Data Rows : 5047
vq_hold             =  1.504326e-01
vq_read             =  2.212420e-01
vq_w0               =  3.255550e-09
vq_w1               =  2.211041e-01
snm_proxy           =  9.886516e-03 at=  1.000100e-09
MEAS_CORNER=ss
MEAS_TEMP_K=298.150000
MEAS_VDD=1.980000
MEAS_SNM_MV=4.94326
MEAS_NOISE=0.479928
MEAS_BER=0.99999
MEAS_HOLD_SNM_MV=4.94326
MEAS_READ_SNM_MV=-65.8661
MEAS_WRITE_MARGIN_MV=221.104
MEAS_NOISE_SIGMA=0.479928
MEAS_READ_FAIL=0.999999
MEAS_WRITE_FAIL=5.14404E-10
ngspice-45.2 done
