
Note: No compatibility mode selected!


Circuit: * gf180mcu 6t sram ngspice template (real pdk deck include)

Doing analysis at TEMP = -40.000000 and TNOM = 27.000000

Using SPARSE 1.3 as Direct Linear Solver
Operating point simulation skipped by 'uic',
  now using transient initial conditions.

No. of Data Rows : 5047
vq_hold             =  1.064140e-01
vq_read             =  7.121842e-01
vq_w0               =  4.629408e-08
vq_w1               =  1.780695e-01
snm_proxy           =  9.476393e-03 at=  1.000100e-09
MEAS_CORNER=ss
MEAS_TEMP_K=233.150000
MEAS_VDD=1.800000
MEAS_SNM_MV=4.7382
MEAS_NOISE=0.787075
MEAS_BER=0.99999
MEAS_HOLD_SNM_MV=4.7382
MEAS_READ_SNM_MV=-601.032
MEAS_WRITE_MARGIN_MV=178.069
MEAS_NOISE_SIGMA=0.787075
MEAS_READ_FAIL=1
MEAS_WRITE_FAIL=1.11562E-07
ngspice-45.2 done
