
Note: No compatibility mode selected!


Circuit: * gf180mcu 6t sram ngspice template (real pdk deck include)

Doing analysis at TEMP = 125.000000 and TNOM = 27.000000

Using SPARSE 1.3 as Direct Linear Solver
Operating point simulation skipped by 'uic',
  now using transient initial conditions.

No. of Data Rows : 5044
vq_hold             =  1.436656e-01
vq_read             =  2.144187e-01
vq_w0               =  1.624673e-07
vq_w1               =  2.136409e-01
snm_proxy           =  1.318576e-02 at=  1.000100e-09
MEAS_CORNER=tt
MEAS_TEMP_K=398.150000
MEAS_VDD=1.620000
MEAS_SNM_MV=6.59288
MEAS_NOISE=0.477736
MEAS_BER=0.999988
MEAS_HOLD_SNM_MV=6.59288
MEAS_READ_SNM_MV=-64.1602
MEAS_WRITE_MARGIN_MV=213.641
MEAS_NOISE_SIGMA=0.477736
MEAS_READ_FAIL=0.999999
MEAS_WRITE_FAIL=1.30755E-09
ngspice-45.2 done
