
Note: No compatibility mode selected!


Circuit: * gf180mcu 6t sram ngspice template (real pdk deck include)

Doing analysis at TEMP = 25.000000 and TNOM = 27.000000

Using SPARSE 1.3 as Direct Linear Solver
Operating point simulation skipped by 'uic',
  now using transient initial conditions.

No. of Data Rows : 5045
vq_hold             =  1.386416e-01
vq_read             =  2.111363e-01
vq_w0               =  5.666386e-09
vq_w1               =  2.111326e-01
snm_proxy           =  1.364288e-02 at=  1.000100e-09
MEAS_CORNER=ff
MEAS_TEMP_K=298.150000
MEAS_VDD=1.620000
MEAS_SNM_MV=6.82144
MEAS_NOISE=0.479585
MEAS_BER=0.999988
MEAS_HOLD_SNM_MV=6.82144
MEAS_READ_SNM_MV=-65.6733
MEAS_WRITE_MARGIN_MV=211.133
MEAS_NOISE_SIGMA=0.479585
MEAS_READ_FAIL=0.999999
MEAS_WRITE_FAIL=1.78906E-09
ngspice-45.2 done
