
Note: No compatibility mode selected!


Circuit: * gf180mcu 6t sram ngspice template (real pdk deck include)

Doing analysis at TEMP = 125.000000 and TNOM = 27.000000

Using SPARSE 1.3 as Direct Linear Solver
Operating point simulation skipped by 'uic',
  now using transient initial conditions.

No. of Data Rows : 5046
vq_hold             =  2.180650e-01
vq_read             =  2.989505e-01
vq_w0               =  1.254038e-06
vq_w1               =  2.989430e-01
snm_proxy           =  1.926184e-02 at=  1.000100e-09
MEAS_CORNER=ff
MEAS_TEMP_K=398.150000
MEAS_VDD=1.980000
MEAS_SNM_MV=9.63092
MEAS_NOISE=0.465361
MEAS_BER=0.999984
MEAS_HOLD_SNM_MV=9.63092
MEAS_READ_SNM_MV=-71.2546
MEAS_WRITE_MARGIN_MV=298.943
MEAS_NOISE_SIGMA=0.465361
MEAS_READ_FAIL=1
MEAS_WRITE_FAIL=3.0597E-14
ngspice-45.2 done
