
Note: No compatibility mode selected!


Circuit: * gf180mcu 6t sram ngspice template (real pdk deck include)

Doing analysis at TEMP = 25.000000 and TNOM = 27.000000

Using SPARSE 1.3 as Direct Linear Solver
Operating point simulation skipped by 'uic',
  now using transient initial conditions.

No. of Data Rows : 5046
vq_hold             =  1.664868e-01
vq_read             =  2.280298e-01
vq_w0               =  3.029624e-09
vq_w1               =  2.280298e-01
snm_proxy           =  9.211731e-02 at=  1.000100e-09
MEAS_CORNER=ff
MEAS_TEMP_K=298.150000
MEAS_VDD=1.800000
MEAS_SNM_MV=46.0587
MEAS_NOISE=0.470849
MEAS_BER=0.999386
MEAS_HOLD_SNM_MV=46.0587
MEAS_READ_SNM_MV=-15.4843
MEAS_WRITE_MARGIN_MV=228.03
MEAS_NOISE_SIGMA=0.470849
MEAS_READ_FAIL=0.999721
MEAS_WRITE_FAIL=2.16436E-10
ngspice-45.2 done
