
Note: No compatibility mode selected!


Circuit: * gf180mcu 6t sram ngspice template (real pdk deck include)

Doing analysis at TEMP = 125.000000 and TNOM = 27.000000

Using SPARSE 1.3 as Direct Linear Solver
Operating point simulation skipped by 'uic',
  now using transient initial conditions.

No. of Data Rows : 5044
vq_hold             =  1.712832e-01
vq_read             =  1.618788e+00
vq_w0               =  1.618993e+00
vq_w1               =  1.619993e+00
snm_proxy           =  1.035477e-02 at=  1.000100e-09
MEAS_CORNER=ff
MEAS_TEMP_K=398.150000
MEAS_VDD=1.620000
MEAS_SNM_MV=5.17738
MEAS_NOISE=0.893524
MEAS_BER=0.99999
MEAS_HOLD_SNM_MV=5.17738
MEAS_READ_SNM_MV=-1442.33
MEAS_WRITE_MARGIN_MV=1619.99
MEAS_NOISE_SIGMA=0.893524
MEAS_READ_FAIL=1
MEAS_WRITE_FAIL=5.88963E-86
ngspice-45.2 done
