
Note: No compatibility mode selected!


Circuit: * gf180mcu 6t sram ngspice template (real pdk deck include)

Doing analysis at TEMP = 25.000000 and TNOM = 27.000000

Using SPARSE 1.3 as Direct Linear Solver
Operating point simulation skipped by 'uic',
  now using transient initial conditions.

No. of Data Rows : 5047
vq_hold             =  2.059683e-01
vq_read             =  2.654640e-01
vq_w0               =  4.817460e-09
vq_w1               =  2.654640e-01
snm_proxy           =  3.444260e-03 at=  1.000100e-09
MEAS_CORNER=ff
MEAS_TEMP_K=298.150000
MEAS_VDD=1.980000
MEAS_SNM_MV=1.72213
MEAS_NOISE=0.463012
MEAS_BER=0.999993
MEAS_HOLD_SNM_MV=1.72213
MEAS_READ_SNM_MV=-57.7736
MEAS_WRITE_MARGIN_MV=265.464
MEAS_NOISE_SIGMA=0.463012
MEAS_READ_FAIL=0.999999
MEAS_WRITE_FAIL=2.00977E-12
ngspice-45.2 done
