
Note: No compatibility mode selected!


Circuit: * gf180mcu 6t sram ngspice template (real pdk deck include)

Doing analysis at TEMP = 125.000000 and TNOM = 27.000000

Using SPARSE 1.3 as Direct Linear Solver
Operating point simulation skipped by 'uic',
  now using transient initial conditions.

No. of Data Rows : 5044
vq_hold             =  1.057630e-01
vq_read             =  2.766980e-01
vq_w0               =  8.502283e-07
vq_w1               =  2.293404e-01
snm_proxy           =  2.525903e-05 at=  1.036500e-09
MEAS_CORNER=fs
MEAS_TEMP_K=398.150000
MEAS_VDD=1.620000
MEAS_SNM_MV=0.0126295
MEAS_NOISE=0.534731
MEAS_BER=0.999994
MEAS_HOLD_SNM_MV=0.0126295
MEAS_READ_SNM_MV=-170.922
MEAS_WRITE_MARGIN_MV=229.34
MEAS_NOISE_SIGMA=0.534731
MEAS_READ_FAIL=1
MEAS_WRITE_FAIL=1.83731E-10
ngspice-45.2 done
