
Note: No compatibility mode selected!


Circuit: * gf180mcu 6t sram ngspice template (real pdk deck include)

Doing analysis at TEMP = -40.000000 and TNOM = 27.000000

Using SPARSE 1.3 as Direct Linear Solver
Operating point simulation skipped by 'uic',
  now using transient initial conditions.

No. of Data Rows : 5047
vq_hold             =  8.594594e-02
vq_read             =  2.150533e-01
vq_w0               =  1.602849e-09
vq_w1               =  2.150302e-01
snm_proxy           =  3.638666e-02 at=  1.000100e-09
MEAS_CORNER=fs
MEAS_TEMP_K=233.150000
MEAS_VDD=1.800000
MEAS_SNM_MV=18.1933
MEAS_NOISE=0.511996
MEAS_BER=0.999962
MEAS_HOLD_SNM_MV=18.1933
MEAS_READ_SNM_MV=-110.914
MEAS_WRITE_MARGIN_MV=215.03
MEAS_NOISE_SIGMA=0.511996
MEAS_READ_FAIL=1
MEAS_WRITE_FAIL=1.0991E-09
ngspice-45.2 done
