
Note: No compatibility mode selected!


Circuit: * gf180mcu 6t sram ngspice template (real pdk deck include)

Doing analysis at TEMP = 25.000000 and TNOM = 27.000000

Using SPARSE 1.3 as Direct Linear Solver
Operating point simulation skipped by 'uic',
  now using transient initial conditions.

No. of Data Rows : 5047
vq_hold             =  1.360016e-01
vq_read             =  2.561467e-01
vq_w0               =  3.238654e-09
vq_w1               =  2.561359e-01
snm_proxy           =  2.835717e-02 at=  1.000100e-09
MEAS_CORNER=fs
MEAS_TEMP_K=298.150000
MEAS_VDD=1.980000
MEAS_SNM_MV=14.1786
MEAS_NOISE=0.495999
MEAS_BER=0.999975
MEAS_HOLD_SNM_MV=14.1786
MEAS_READ_SNM_MV=-105.967
MEAS_WRITE_MARGIN_MV=256.136
MEAS_NOISE_SIGMA=0.495999
MEAS_READ_FAIL=1
MEAS_WRITE_FAIL=6.4497E-12
ngspice-45.2 done
