
Note: No compatibility mode selected!


Circuit: * gf180mcu 6t sram ngspice template (real pdk deck include)

Doing analysis at TEMP = -40.000000 and TNOM = 27.000000

Using SPARSE 1.3 as Direct Linear Solver
Operating point simulation skipped by 'uic',
  now using transient initial conditions.

No. of Data Rows : 5046
vq_hold             =  6.790854e-02
vq_read             =  3.995056e-01
vq_w0               =  1.376835e-08
vq_w1               =  1.828109e-01
snm_proxy           =  2.929266e-03 at=  1.000100e-09
MEAS_CORNER=fs
MEAS_TEMP_K=233.150000
MEAS_VDD=1.620000
MEAS_SNM_MV=1.46463
MEAS_NOISE=0.648266
MEAS_BER=0.999993
MEAS_HOLD_SNM_MV=1.46463
MEAS_READ_SNM_MV=-330.132
MEAS_WRITE_MARGIN_MV=182.811
MEAS_NOISE_SIGMA=0.648266
MEAS_READ_FAIL=1
MEAS_WRITE_FAIL=6.16765E-08
ngspice-45.2 done
