
Note: No compatibility mode selected!


Circuit: * gf180mcu 6t sram ngspice template (real pdk deck include)

Doing analysis at TEMP = -40.000000 and TNOM = 27.000000

Using SPARSE 1.3 as Direct Linear Solver
Operating point simulation skipped by 'uic',
  now using transient initial conditions.

No. of Data Rows : 5047
vq_hold             =  1.182133e-01
vq_read             =  2.395591e-01
vq_w0               =  1.604011e-09
vq_w1               =  2.395588e-01
snm_proxy           =  6.982704e-02 at=  1.000100e-09
MEAS_CORNER=fs
MEAS_TEMP_K=233.150000
MEAS_VDD=1.980000
MEAS_SNM_MV=34.9135
MEAS_NOISE=0.500791
MEAS_BER=0.999798
MEAS_HOLD_SNM_MV=34.9135
MEAS_READ_SNM_MV=-86.4323
MEAS_WRITE_MARGIN_MV=239.559
MEAS_NOISE_SIGMA=0.500791
MEAS_READ_FAIL=1
MEAS_WRITE_FAIL=5.12221E-11
ngspice-45.2 done
