
Note: No compatibility mode selected!


Circuit: * gf180mcu 6t sram ngspice template (real pdk deck include)

Doing analysis at TEMP = -40.000000 and TNOM = 27.000000

Using SPARSE 1.3 as Direct Linear Solver
Operating point simulation skipped by 'uic',
  now using transient initial conditions.

No. of Data Rows : 5046
vq_hold             =  1.432406e-01
vq_read             =  1.603720e-01
vq_w0               =  1.981802e-09
vq_w1               =  1.602961e-01
snm_proxy           =  1.652344e-02 at=  1.000100e-09
MEAS_CORNER=sf
MEAS_TEMP_K=233.150000
MEAS_VDD=1.620000
MEAS_SNM_MV=8.26172
MEAS_NOISE=0.461101
MEAS_BER=0.999986
MEAS_HOLD_SNM_MV=8.26172
MEAS_READ_SNM_MV=-8.86968
MEAS_WRITE_MARGIN_MV=160.296
MEAS_NOISE_SIGMA=0.461101
MEAS_READ_FAIL=0.999363
MEAS_WRITE_FAIL=1.02891E-06
ngspice-45.2 done
