
Note: No compatibility mode selected!


Circuit: * gf180mcu 6t sram ngspice template (real pdk deck include)

Doing analysis at TEMP = -40.000000 and TNOM = 27.000000

Using SPARSE 1.3 as Direct Linear Solver
Operating point simulation skipped by 'uic',
  now using transient initial conditions.

No. of Data Rows : 5047
vq_hold             =  1.941677e-01
vq_read             =  2.146866e-01
vq_w0               =  1.885659e-09
vq_w1               =  2.146863e-01
snm_proxy           =  1.353558e-03 at=  1.000100e-09
MEAS_CORNER=sf
MEAS_TEMP_K=233.150000
MEAS_VDD=1.980000
MEAS_SNM_MV=0.676779
MEAS_NOISE=0.456149
MEAS_BER=0.999993
MEAS_HOLD_SNM_MV=0.676779
MEAS_READ_SNM_MV=-19.8421
MEAS_WRITE_MARGIN_MV=214.686
MEAS_NOISE_SIGMA=0.456149
MEAS_READ_FAIL=0.999838
MEAS_WRITE_FAIL=1.14738E-09
ngspice-45.2 done
