
Note: No compatibility mode selected!


Circuit: * gf180mcu 6t sram ngspice template (real pdk deck include)

Doing analysis at TEMP = 125.000000 and TNOM = 27.000000

Using SPARSE 1.3 as Direct Linear Solver
Operating point simulation skipped by 'uic',
  now using transient initial conditions.

No. of Data Rows : 5045
vq_hold             =  1.756501e-01
vq_read             =  2.547205e-01
vq_w0               =  4.052811e-08
vq_w1               =  2.528871e-01
snm_proxy           =  9.183031e-03 at=  1.000100e-09
MEAS_CORNER=ss
MEAS_TEMP_K=398.150000
MEAS_VDD=1.980000
MEAS_SNM_MV=4.59152
MEAS_NOISE=0.476074
MEAS_BER=0.99999
MEAS_HOLD_SNM_MV=4.59152
MEAS_READ_SNM_MV=-74.4789
MEAS_WRITE_MARGIN_MV=252.887
MEAS_NOISE_SIGMA=0.476074
MEAS_READ_FAIL=1
MEAS_WRITE_FAIL=9.68069E-12
ngspice-45.2 done
