
Note: No compatibility mode selected!


Circuit: * gf180mcu 6t sram ngspice template (real pdk deck include)

Doing analysis at TEMP = 125.000000 and TNOM = 27.000000

Using SPARSE 1.3 as Direct Linear Solver
Operating point simulation skipped by 'uic',
  now using transient initial conditions.

No. of Data Rows : 5044
vq_hold             =  1.257962e-01
vq_read             =  8.063919e-01
vq_w0               =  1.593351e+00
vq_w1               =  1.619998e+00
snm_proxy           =  1.397015e-05 at=  1.234500e-09
MEAS_CORNER=ss
MEAS_TEMP_K=398.150000
MEAS_VDD=1.620000
MEAS_SNM_MV=0.00698508
MEAS_NOISE=0.420121
MEAS_BER=0.999994
MEAS_HOLD_SNM_MV=0.00698508
MEAS_READ_SNM_MV=-680.589
MEAS_WRITE_MARGIN_MV=1620
MEAS_NOISE_SIGMA=0.420121
MEAS_READ_FAIL=1
MEAS_WRITE_FAIL=5.88595E-86
ngspice-45.2 done
