
Note: No compatibility mode selected!


Circuit: * gf180mcu 6t sram ngspice template (real pdk deck include)

Doing analysis at TEMP = -40.000000 and TNOM = 27.000000

Using SPARSE 1.3 as Direct Linear Solver
Operating point simulation skipped by 'uic',
  now using transient initial conditions.

No. of Data Rows : 5047
vq_hold             =  1.135458e-01
vq_read             =  8.432187e-01
vq_w0               =  2.880873e-05
vq_w1               =  1.764102e-01
snm_proxy           =  1.664728e-03 at=  1.995500e-09
MEAS_CORNER=ss
MEAS_TEMP_K=233.150000
MEAS_VDD=1.800000
MEAS_SNM_MV=0.832364
MEAS_NOISE=0.856371
MEAS_BER=0.999993
MEAS_HOLD_SNM_MV=0.832364
MEAS_READ_SNM_MV=-728.841
MEAS_WRITE_MARGIN_MV=176.41
MEAS_NOISE_SIGMA=0.856371
MEAS_READ_FAIL=1
MEAS_WRITE_FAIL=1.37276E-07
ngspice-45.2 done
