
Note: No compatibility mode selected!


Circuit: * gf180mcu 6t sram ngspice template (real pdk deck include)

Doing analysis at TEMP = -40.000000 and TNOM = 27.000000

Using SPARSE 1.3 as Direct Linear Solver
Operating point simulation skipped by 'uic',
  now using transient initial conditions.

No. of Data Rows : 5047
vq_hold             =  1.315619e-01
vq_read             =  2.022462e-01
vq_w0               =  2.006710e-09
vq_w1               =  2.021756e-01
snm_proxy           =  1.728795e-02 at=  1.000100e-09
MEAS_CORNER=ss
MEAS_TEMP_K=233.150000
MEAS_VDD=1.980000
MEAS_SNM_MV=8.64397
MEAS_NOISE=0.484645
MEAS_BER=0.999985
MEAS_HOLD_SNM_MV=8.64397
MEAS_READ_SNM_MV=-62.0403
MEAS_WRITE_MARGIN_MV=202.176
MEAS_NOISE_SIGMA=0.484645
MEAS_READ_FAIL=0.999999
MEAS_WRITE_FAIL=5.48115E-09
ngspice-45.2 done
