
Note: No compatibility mode selected!


Circuit: * gf180mcu 6t sram ngspice template (real pdk deck include)

Doing analysis at TEMP = 125.000000 and TNOM = 27.000000

Using SPARSE 1.3 as Direct Linear Solver
Operating point simulation skipped by 'uic',
  now using transient initial conditions.

No. of Data Rows : 5044
vq_hold             =  1.489552e-01
vq_read             =  2.174620e-01
vq_w0               =  7.469247e-08
vq_w1               =  2.150965e-01
snm_proxy           =  1.420018e-02 at=  1.000100e-09
MEAS_CORNER=ss
MEAS_TEMP_K=398.150000
MEAS_VDD=1.800000
MEAS_SNM_MV=7.10009
MEAS_NOISE=0.47831
MEAS_BER=0.999988
MEAS_HOLD_SNM_MV=7.10009
MEAS_READ_SNM_MV=-61.4067
MEAS_WRITE_MARGIN_MV=215.097
MEAS_NOISE_SIGMA=0.47831
MEAS_READ_FAIL=0.999999
MEAS_WRITE_FAIL=1.09003E-09
ngspice-45.2 done
