
Note: No compatibility mode selected!


Circuit: * gf180mcu 6t sram ngspice template (real pdk deck include)

Doing analysis at TEMP = 25.000000 and TNOM = 27.000000

Using SPARSE 1.3 as Direct Linear Solver
Operating point simulation skipped by 'uic',
  now using transient initial conditions.

No. of Data Rows : 5045
vq_hold             =  9.303368e-02
vq_read             =  6.837036e-01
vq_w0               =  1.563183e-05
vq_w1               =  1.672189e-01
snm_proxy           =  4.394530e-03 at=  1.028500e-09
MEAS_CORNER=ss
MEAS_TEMP_K=298.150000
MEAS_VDD=1.620000
MEAS_SNM_MV=2.19726
MEAS_NOISE=0.813
MEAS_BER=0.999992
MEAS_HOLD_SNM_MV=2.19726
MEAS_READ_SNM_MV=-588.473
MEAS_WRITE_MARGIN_MV=167.219
MEAS_NOISE_SIGMA=0.813
MEAS_READ_FAIL=1
MEAS_WRITE_FAIL=4.33072E-07
ngspice-45.2 done
