
Note: No compatibility mode selected!


Circuit: * gf180mcu 6t sram ngspice template (real pdk deck include)

Doing analysis at TEMP = -40.000000 and TNOM = 27.000000

Using SPARSE 1.3 as Direct Linear Solver
Operating point simulation skipped by 'uic',
  now using transient initial conditions.

No. of Data Rows : 5046
vq_hold             =  1.007944e-01
vq_read             =  2.945656e-01
vq_w0               =  2.049287e-09
vq_w1               =  1.689903e-01
snm_proxy           =  3.564854e-06 at=  1.079500e-09
MEAS_CORNER=tt
MEAS_TEMP_K=233.150000
MEAS_VDD=1.620000
MEAS_SNM_MV=0.00178243
MEAS_NOISE=0.567454
MEAS_BER=0.999994
MEAS_HOLD_SNM_MV=0.00178243
MEAS_READ_SNM_MV=-193.769
MEAS_WRITE_MARGIN_MV=168.99
MEAS_NOISE_SIGMA=0.567454
MEAS_READ_FAIL=1
MEAS_WRITE_FAIL=3.47053E-07
ngspice-45.2 done
