
Note: No compatibility mode selected!


Circuit: * gf180mcu 6t sram ngspice template (real pdk deck include)

Doing analysis at TEMP = -40.000000 and TNOM = 27.000000

Using SPARSE 1.3 as Direct Linear Solver
Operating point simulation skipped by 'uic',
  now using transient initial conditions.

No. of Data Rows : 5047
vq_hold             =  1.216227e-01
vq_read             =  1.973091e-01
vq_w0               =  1.707679e-09
vq_w1               =  1.972670e-01
snm_proxy           =  4.225117e-03 at=  1.000100e-09
MEAS_CORNER=tt
MEAS_TEMP_K=233.150000
MEAS_VDD=1.800000
MEAS_SNM_MV=2.11256
MEAS_NOISE=0.487252
MEAS_BER=0.999992
MEAS_HOLD_SNM_MV=2.11256
MEAS_READ_SNM_MV=-73.5738
MEAS_WRITE_MARGIN_MV=197.267
MEAS_NOISE_SIGMA=0.487252
MEAS_READ_FAIL=1
MEAS_WRITE_FAIL=1.01238E-08
ngspice-45.2 done
