
Note: No compatibility mode selected!


Circuit: * gf180mcu 6t sram ngspice template (real pdk deck include)

Doing analysis at TEMP = 125.000000 and TNOM = 27.000000

Using SPARSE 1.3 as Direct Linear Solver
Operating point simulation skipped by 'uic',
  now using transient initial conditions.

No. of Data Rows : 5046
vq_hold             =  2.194348e-01
vq_read             =  1.976401e+00
vq_w0               =  1.976579e+00
vq_w1               =  1.979991e+00
snm_proxy           =  2.239470e-05 at=  1.100500e-09
MEAS_CORNER=ff
MEAS_TEMP_K=398.150000
MEAS_VDD=1.980000
MEAS_SNM_MV=0.0111974
MEAS_NOISE=0.887359
MEAS_BER=0.999994
MEAS_HOLD_SNM_MV=0.0111974
MEAS_READ_SNM_MV=-1756.96
MEAS_WRITE_MARGIN_MV=1979.99
MEAS_NOISE_SIGMA=0.887359
MEAS_READ_FAIL=1
MEAS_WRITE_FAIL=1.68634E-105
ngspice-45.2 done
