
Note: No compatibility mode selected!


Circuit: * gf180mcu 6t sram ngspice template (real pdk deck include)

Doing analysis at TEMP = -40.000000 and TNOM = 27.000000

Using SPARSE 1.3 as Direct Linear Solver
Operating point simulation skipped by 'uic',
  now using transient initial conditions.

No. of Data Rows : 5049
vq_hold             =  1.461122e-01
vq_read             =  2.182599e-01
vq_w0               =  1.511618e-09
vq_w1               =  2.182598e-01
snm_proxy           =  6.113040e-03 at=  1.000100e-09
MEAS_CORNER=ff
MEAS_TEMP_K=233.150000
MEAS_VDD=1.800000
MEAS_SNM_MV=3.05652
MEAS_NOISE=0.479454
MEAS_BER=0.999992
MEAS_HOLD_SNM_MV=3.05652
MEAS_READ_SNM_MV=-69.0912
MEAS_WRITE_MARGIN_MV=218.26
MEAS_NOISE_SIGMA=0.479454
MEAS_READ_FAIL=1
MEAS_WRITE_FAIL=7.34027E-10
ngspice-45.2 done
