
Note: No compatibility mode selected!


Circuit: * gf180mcu 6t sram ngspice template (real pdk deck include)

Doing analysis at TEMP = 25.000000 and TNOM = 27.000000

Using SPARSE 1.3 as Direct Linear Solver
Operating point simulation skipped by 'uic',
  now using transient initial conditions.

No. of Data Rows : 5046
vq_hold             =  1.056191e-01
vq_read             =  2.290458e-01
vq_w0               =  4.198582e-09
vq_w1               =  2.287930e-01
snm_proxy           =  1.619231e-02 at=  1.000100e-09
MEAS_CORNER=fs
MEAS_TEMP_K=298.150000
MEAS_VDD=1.800000
MEAS_SNM_MV=8.09616
MEAS_NOISE=0.505017
MEAS_BER=0.999986
MEAS_HOLD_SNM_MV=8.09616
MEAS_READ_SNM_MV=-115.331
MEAS_WRITE_MARGIN_MV=228.793
MEAS_NOISE_SIGMA=0.505017
MEAS_READ_FAIL=1
MEAS_WRITE_FAIL=1.96743E-10
ngspice-45.2 done
