
Note: No compatibility mode selected!


Circuit: * gf180mcu 6t sram ngspice template (real pdk deck include)

Doing analysis at TEMP = 125.000000 and TNOM = 27.000000

Using SPARSE 1.3 as Direct Linear Solver
Operating point simulation skipped by 'uic',
  now using transient initial conditions.

No. of Data Rows : 5046
vq_hold             =  1.489218e-01
vq_read             =  3.037970e-01
vq_w0               =  7.417831e-07
vq_w1               =  2.925004e-01
snm_proxy           =  1.081076e-02 at=  1.000100e-09
MEAS_CORNER=fs
MEAS_TEMP_K=398.150000
MEAS_VDD=1.980000
MEAS_SNM_MV=5.40538
MEAS_NOISE=0.504356
MEAS_BER=0.999989
MEAS_HOLD_SNM_MV=5.40538
MEAS_READ_SNM_MV=-149.47
MEAS_WRITE_MARGIN_MV=292.5
MEAS_NOISE_SIGMA=0.504356
MEAS_READ_FAIL=1
MEAS_WRITE_FAIL=6.84584E-14
ngspice-45.2 done
