
Note: No compatibility mode selected!


Circuit: * gf180mcu 6t sram ngspice template (real pdk deck include)

Doing analysis at TEMP = 125.000000 and TNOM = 27.000000

Using SPARSE 1.3 as Direct Linear Solver
Operating point simulation skipped by 'uic',
  now using transient initial conditions.

No. of Data Rows : 5044
vq_hold             =  2.256854e-01
vq_read             =  2.251641e-01
vq_w0               =  1.063565e-07
vq_w1               =  2.247597e-01
snm_proxy           =  1.342235e-02 at=  1.000100e-09
MEAS_CORNER=sf
MEAS_TEMP_K=398.150000
MEAS_VDD=1.800000
MEAS_SNM_MV=6.71118
MEAS_NOISE=0.437856
MEAS_BER=0.999988
MEAS_HOLD_SNM_MV=6.71118
MEAS_READ_SNM_MV=6.18987
MEAS_WRITE_MARGIN_MV=224.76
MEAS_NOISE_SIGMA=0.437856
MEAS_READ_FAIL=0.995833
MEAS_WRITE_FAIL=3.25727E-10
ngspice-45.2 done
