
Note: No compatibility mode selected!


Circuit: * gf180mcu 6t sram ngspice template (real pdk deck include)

Doing analysis at TEMP = -40.000000 and TNOM = 27.000000

Using SPARSE 1.3 as Direct Linear Solver
Operating point simulation skipped by 'uic',
  now using transient initial conditions.

No. of Data Rows : 5046
vq_hold             =  8.336610e-02
vq_read             =  7.319921e-01
vq_w0               =  1.894047e-02
vq_w1               =  1.523546e-01
snm_proxy           =  9.339468e-03 at=  1.000100e-09
MEAS_CORNER=ss
MEAS_TEMP_K=233.150000
MEAS_VDD=1.620000
MEAS_SNM_MV=4.66973
MEAS_NOISE=0.853363
MEAS_BER=0.99999
MEAS_HOLD_SNM_MV=4.66973
MEAS_READ_SNM_MV=-643.956
MEAS_WRITE_MARGIN_MV=152.355
MEAS_NOISE_SIGMA=0.853363
MEAS_READ_FAIL=1
MEAS_WRITE_FAIL=2.77648E-06
ngspice-45.2 done
