
Note: No compatibility mode selected!


Circuit: * gf180mcu 6t sram ngspice template (real pdk deck include)

Doing analysis at TEMP = 25.000000 and TNOM = 27.000000

Using SPARSE 1.3 as Direct Linear Solver
Operating point simulation skipped by 'uic',
  now using transient initial conditions.

No. of Data Rows : 5046
vq_hold             =  1.160541e-01
vq_read             =  1.432039e+00
vq_w0               =  1.799995e+00
vq_w1               =  1.800000e+00
snm_proxy           =  1.747472e-05 at=  1.020500e-09
MEAS_CORNER=ss
MEAS_TEMP_K=298.150000
MEAS_VDD=1.800000
MEAS_SNM_MV=0.00873736
MEAS_NOISE=0.731103
MEAS_BER=0.999994
MEAS_HOLD_SNM_MV=0.00873736
MEAS_READ_SNM_MV=-1315.98
MEAS_WRITE_MARGIN_MV=1800
MEAS_NOISE_SIGMA=0.731103
MEAS_READ_FAIL=1
MEAS_WRITE_FAIL=9.95594E-96
ngspice-45.2 done
