
Note: No compatibility mode selected!


Circuit: * gf180mcu 6t sram ngspice template (real pdk deck include)

Doing analysis at TEMP = 125.000000 and TNOM = 27.000000

Using SPARSE 1.3 as Direct Linear Solver
Operating point simulation skipped by 'uic',
  now using transient initial conditions.

No. of Data Rows : 5044
vq_hold             =  1.455008e-01
vq_read             =  2.374800e-01
vq_w0               =  9.489327e-08
vq_w1               =  2.273409e-01
snm_proxy           =  2.132740e-02 at=  1.000100e-09
MEAS_CORNER=ss
MEAS_TEMP_K=398.150000
MEAS_VDD=1.800000
MEAS_SNM_MV=10.6637
MEAS_NOISE=0.487949
MEAS_BER=0.999982
MEAS_HOLD_SNM_MV=10.6637
MEAS_READ_SNM_MV=-81.3155
MEAS_WRITE_MARGIN_MV=227.341
MEAS_NOISE_SIGMA=0.487949
MEAS_READ_FAIL=1
MEAS_WRITE_FAIL=2.359E-10
ngspice-45.2 done
