
Note: No compatibility mode selected!


Circuit: * gf180mcu 6t sram ngspice template (real pdk deck include)

Doing analysis at TEMP = -40.000000 and TNOM = 27.000000

Using SPARSE 1.3 as Direct Linear Solver
Operating point simulation skipped by 'uic',
  now using transient initial conditions.

No. of Data Rows : 5047
vq_hold             =  1.021886e-01
vq_read             =  4.304051e-01
vq_w0               =  5.247827e-09
vq_w1               =  1.761452e-01
snm_proxy           =  1.272005e-02 at=  1.000100e-09
MEAS_CORNER=ss
MEAS_TEMP_K=233.150000
MEAS_VDD=1.800000
MEAS_SNM_MV=6.36003
MEAS_NOISE=0.633413
MEAS_BER=0.999988
MEAS_HOLD_SNM_MV=6.36003
MEAS_READ_SNM_MV=-321.856
MEAS_WRITE_MARGIN_MV=176.145
MEAS_NOISE_SIGMA=0.633413
MEAS_READ_FAIL=1
MEAS_WRITE_FAIL=1.41899E-07
ngspice-45.2 done
