
Note: No compatibility mode selected!


Circuit: * gf180mcu 6t sram ngspice template (real pdk deck include)

Doing analysis at TEMP = 25.000000 and TNOM = 27.000000

Using SPARSE 1.3 as Direct Linear Solver
Operating point simulation skipped by 'uic',
  now using transient initial conditions.

No. of Data Rows : 5045
vq_hold             =  9.738770e-02
vq_read             =  7.019733e-01
vq_w0               =  2.806049e-05
vq_w1               =  1.686534e-01
snm_proxy           =  7.858277e-03 at=  1.000100e-09
MEAS_CORNER=ss
MEAS_TEMP_K=298.150000
MEAS_VDD=1.620000
MEAS_SNM_MV=3.92914
MEAS_NOISE=0.821147
MEAS_BER=0.999991
MEAS_HOLD_SNM_MV=3.92914
MEAS_READ_SNM_MV=-600.656
MEAS_WRITE_MARGIN_MV=168.653
MEAS_NOISE_SIGMA=0.821147
MEAS_READ_FAIL=1
MEAS_WRITE_FAIL=3.61981E-07
ngspice-45.2 done
