
Note: No compatibility mode selected!


Circuit: * gf180mcu 6t sram ngspice template (real pdk deck include)

Doing analysis at TEMP = -40.000000 and TNOM = 27.000000

Using SPARSE 1.3 as Direct Linear Solver
Operating point simulation skipped by 'uic',
  now using transient initial conditions.

No. of Data Rows : 5047
vq_hold             =  1.492596e-01
vq_read             =  2.242151e-01
vq_w0               =  1.722697e-09
vq_w1               =  2.242098e-01
snm_proxy           =  4.246464e-03 at=  1.000100e-09
MEAS_CORNER=tt
MEAS_TEMP_K=233.150000
MEAS_VDD=1.980000
MEAS_SNM_MV=2.12323
MEAS_NOISE=0.481238
MEAS_BER=0.999992
MEAS_HOLD_SNM_MV=2.12323
MEAS_READ_SNM_MV=-72.8323
MEAS_WRITE_MARGIN_MV=224.21
MEAS_NOISE_SIGMA=0.481238
MEAS_READ_FAIL=1
MEAS_WRITE_FAIL=3.48904E-10
ngspice-45.2 done
