
Note: No compatibility mode selected!


Circuit: * gf180mcu 6t sram ngspice template (real pdk deck include)

Doing analysis at TEMP = -40.000000 and TNOM = 27.000000

Using SPARSE 1.3 as Direct Linear Solver
Operating point simulation skipped by 'uic',
  now using transient initial conditions.

No. of Data Rows : 5046
vq_hold             =  1.002782e-01
vq_read             =  1.714594e-01
vq_w0               =  1.808910e-09
vq_w1               =  1.700848e-01
snm_proxy           =  1.499997e-02 at=  1.000100e-09
MEAS_CORNER=tt
MEAS_TEMP_K=233.150000
MEAS_VDD=1.620000
MEAS_SNM_MV=7.49999
MEAS_NOISE=0.491444
MEAS_BER=0.999987
MEAS_HOLD_SNM_MV=7.49999
MEAS_READ_SNM_MV=-63.6812
MEAS_WRITE_MARGIN_MV=170.085
MEAS_NOISE_SIGMA=0.491444
MEAS_READ_FAIL=0.999999
MEAS_WRITE_FAIL=3.02677E-07
ngspice-45.2 done
