
Note: No compatibility mode selected!


Circuit: * gf180mcu 6t sram ngspice template (real pdk deck include)

Doing analysis at TEMP = -40.000000 and TNOM = 27.000000

Using SPARSE 1.3 as Direct Linear Solver
Operating point simulation skipped by 'uic',
  now using transient initial conditions.

No. of Data Rows : 5047
vq_hold             =  1.302267e-01
vq_read             =  1.984321e-01
vq_w0               =  1.718803e-09
vq_w1               =  1.984291e-01
snm_proxy           =  2.110944e-02 at=  1.000100e-09
MEAS_CORNER=tt
MEAS_TEMP_K=233.150000
MEAS_VDD=1.800000
MEAS_SNM_MV=10.5547
MEAS_NOISE=0.482773
MEAS_BER=0.999982
MEAS_HOLD_SNM_MV=10.5547
MEAS_READ_SNM_MV=-57.6507
MEAS_WRITE_MARGIN_MV=198.429
MEAS_NOISE_SIGMA=0.482773
MEAS_READ_FAIL=0.999999
MEAS_WRITE_FAIL=8.75503E-09
ngspice-45.2 done
