
Note: No compatibility mode selected!


Circuit: * gf180mcu 6t sram ngspice template (real pdk deck include)

Doing analysis at TEMP = 25.000000 and TNOM = 27.000000

Using SPARSE 1.3 as Direct Linear Solver
Operating point simulation skipped by 'uic',
  now using transient initial conditions.

No. of Data Rows : 5045
vq_hold             =  1.147203e-01
vq_read             =  1.850135e-01
vq_w0               =  3.654136e-09
vq_w1               =  1.848139e-01
snm_proxy           =  2.993449e-02 at=  1.000100e-09
MEAS_CORNER=tt
MEAS_TEMP_K=298.150000
MEAS_VDD=1.620000
MEAS_SNM_MV=14.9672
MEAS_NOISE=0.48635
MEAS_BER=0.999973
MEAS_HOLD_SNM_MV=14.9672
MEAS_READ_SNM_MV=-55.326
MEAS_WRITE_MARGIN_MV=184.814
MEAS_NOISE_SIGMA=0.48635
MEAS_READ_FAIL=0.999998
MEAS_WRITE_FAIL=4.80157E-08
ngspice-45.2 done
