
*****
***** Welcome to the Xyce(TM) Parallel Electronic Simulator
*****
***** This is version XyceNF Release 7.10.0
***** Date: Mon Apr 13 22:52:28  2026


***** Executing netlist C:\Users\daily\AppData\Local\Temp\sram_spice_workspace\ff_t298_v0p63\ff_t298_v0p63.sp

***** Reading and parsing netlist...
Netlist warning in file
 C:\Users\daily\AppData\Local\Temp\sram_spice_workspace\ff_t298_v0p63\ff_t298_v0p63.sp
 at or near line 7
 Unrecognized .OPTIONS package or parameter NOINIT will be ignored
Netlist warning in file
 C:\Users\daily\AppData\Local\Temp\sram_spice_workspace\ff_t298_v0p63\ff_t298_v0p63.sp
 at or near line 8
 Option name missing, or SPICE-style option not supported in Xyce
Netlist warning in file
 C:\Users\daily\AppData\Local\Temp\sram_spice_workspace\ff_t298_v0p63\ff_t298_v0p63.sp
 at or near line 8
 Unrecognized dot line will be ignored
Netlist warning in file
 C:\Users\daily\AppData\Local\Temp\sram_spice_workspace\ff_t298_v0p63\ff_t298_v0p63.sp
 at or near line 47
 Unrecognized dot line will be ignored
Netlist warning: No print specified
Netlist warning in file
 C:/Users/daily/AppData/Local/Temp/sram_spice_workspace/ff_t298_v0p63/assets/asap7_xyce/7nm_FF_160803_l107.pm
 at or near line 484
 No model parameter VERSION found for model PMOS_SRAM of type PMOS, parameter
 ignored.
Netlist warning in file
 C:/Users/daily/AppData/Local/Temp/sram_spice_workspace/ff_t298_v0p63/assets/asap7_xyce/7nm_FF_160803_l107.pm
 at or near line 227
 No model parameter VERSION found for model NMOS_SRAM of type NMOS, parameter
 ignored.
Netlist warning in file
 C:/Users/daily/AppData/Local/Temp/sram_spice_workspace/ff_t298_v0p63/assets/asap7_xyce/7nm_FF_160803_l107.pm
 at or near line 227
 Device model NMOS_SRAM: ADMSbsimcmg: Parameter EOTACC value 1e-10 out of
 range [ 0.1*1.0e-9,  (+inf) [
***** Setting up topology...

***** Device Count Summary ...
       M level 107 (BSIM-CMG FINFET v107.0.0)  6
       V level 1 (Independent Voltage Source)  4
       -----------------------------------------
       Total Devices                          10
***** Setting up matrix structure...
***** Number of Unknowns = 22
***** Initializing...

***** Beginning Transient Calculation...

***** Percent complete: 1.068 %
***** Current system time: Mon Apr 13 22:52:28 2026
***** Estimated time to completion:  0 sec.

***** Percent complete: 2.364 %
***** Current system time: Mon Apr 13 22:52:28 2026
***** Estimated time to completion:  0 sec.

***** Percent complete: 3.516 %
***** Current system time: Mon Apr 13 22:52:28 2026
***** Estimated time to completion:  0 sec.

***** Percent complete: 5.244 %
***** Current system time: Mon Apr 13 22:52:28 2026
***** Estimated time to completion:  0 sec.

***** Percent complete: 6.396 %
***** Current system time: Mon Apr 13 22:52:28 2026
***** Estimated time to completion:  0 sec.

***** Percent complete: 8.7 %
***** Current system time: Mon Apr 13 22:52:28 2026
***** Estimated time to completion:  0 sec.

***** Percent complete: 13.308 %
***** Current system time: Mon Apr 13 22:52:28 2026
***** Estimated time to completion:  0 sec.

***** Percent complete: 18 %
***** Current system time: Mon Apr 13 22:52:28 2026
***** Estimated time to completion:  0 sec.

***** Percent complete: 19.0111 %
***** Current system time: Mon Apr 13 22:52:28 2026
***** Estimated time to completion:  0 sec.

***** Percent complete: 20.024 %
***** Current system time: Mon Apr 13 22:52:28 2026
***** Estimated time to completion:  0 sec.

***** Percent complete: 21.0335 %
***** Current system time: Mon Apr 13 22:52:28 2026
***** Estimated time to completion:  0 sec.

***** Percent complete: 22.101 %
***** Current system time: Mon Apr 13 22:52:28 2026
***** Estimated time to completion:  0 sec.

***** Percent complete: 24.4314 %
***** Current system time: Mon Apr 13 22:52:28 2026
***** Estimated time to completion:  0 sec.

***** Percent complete: 27.0947 %
***** Current system time: Mon Apr 13 22:52:28 2026
***** Estimated time to completion:  0 sec.

***** Percent complete: 32.4213 %
***** Current system time: Mon Apr 13 22:52:28 2026
***** Estimated time to completion:  0 sec.

***** Percent complete: 39.8 %
***** Current system time: Mon Apr 13 22:52:28 2026
***** Estimated time to completion:  0 sec.

***** Percent complete: 41.044 %
***** Current system time: Mon Apr 13 22:52:28 2026
***** Estimated time to completion:  0 sec.

***** Percent complete: 42.068 %
***** Current system time: Mon Apr 13 22:52:28 2026
***** Estimated time to completion:  0 sec.

***** Percent complete: 44.116 %
***** Current system time: Mon Apr 13 22:52:28 2026
***** Estimated time to completion:  0 sec.

***** Percent complete: 48.212 %
***** Current system time: Mon Apr 13 22:52:28 2026
***** Estimated time to completion:  0 sec.

***** Percent complete: 56.404 %
***** Current system time: Mon Apr 13 22:52:28 2026
***** Estimated time to completion:  0 sec.

***** Percent complete: 59.8 %
***** Current system time: Mon Apr 13 22:52:28 2026
***** Estimated time to completion:  0 sec.

***** Percent complete: 60.8028 %
***** Current system time: Mon Apr 13 22:52:28 2026
***** Estimated time to completion:  0 sec.

***** Percent complete: 62.3443 %
***** Current system time: Mon Apr 13 22:52:28 2026
***** Estimated time to completion:  0 sec.

***** Percent complete: 64.3995 %
***** Current system time: Mon Apr 13 22:52:28 2026
***** Estimated time to completion:  0 sec.

***** Percent complete: 68.51 %
***** Current system time: Mon Apr 13 22:52:28 2026
***** Estimated time to completion:  0 sec.

***** Percent complete: 76.7311 %
***** Current system time: Mon Apr 13 22:52:28 2026
***** Estimated time to completion:  0 sec.

***** Percent complete: 78 %
***** Current system time: Mon Apr 13 22:52:28 2026
***** Estimated time to completion:  0 sec.

***** Percent complete: 79.1203 %
***** Current system time: Mon Apr 13 22:52:28 2026
***** Estimated time to completion:  0 sec.

***** Percent complete: 80.1236 %
***** Current system time: Mon Apr 13 22:52:28 2026
***** Estimated time to completion:  0 sec.

***** Percent complete: 81.2328 %
***** Current system time: Mon Apr 13 22:52:28 2026
***** Estimated time to completion:  0 sec.

***** Percent complete: 82.3419 %
***** Current system time: Mon Apr 13 22:52:28 2026
***** Estimated time to completion:  0 sec.

***** Percent complete: 83.4511 %
***** Current system time: Mon Apr 13 22:52:28 2026
***** Estimated time to completion:  0 sec.

***** Percent complete: 85.1149 %
***** Current system time: Mon Apr 13 22:52:28 2026
***** Estimated time to completion:  0 sec.

***** Percent complete: 86.2241 %
***** Current system time: Mon Apr 13 22:52:28 2026
***** Estimated time to completion:  0 sec.

***** Percent complete: 88.4425 %
***** Current system time: Mon Apr 13 22:52:28 2026
***** Estimated time to completion:  0 sec.

***** Percent complete: 92.8793 %
***** Current system time: Mon Apr 13 22:52:28 2026
***** Estimated time to completion:  0 sec.

***** Problem read in and set up time: 0.0336157 seconds
 ***** DCOP time: 0.0005009 seconds.  Breakdown follows:
	Number Successful Steps Taken:		0
	Number Failed Steps Attempted:		0
	Number Jacobians Evaluated:		0
	Number Linear Solves:			0
	Number Failed Linear Solves:		0
	Number Residual Evaluations:		0
	Number Nonlinear Convergence Failures:	0
	Total Residual Load Time:		0 seconds
	Total Jacobian Load Time:		0 seconds
	Total Linear Solution Time:		0 seconds

 ***** Transient Stepping time: 0.0328533 seconds.  Breakdown follows:
	Number Successful Steps Taken:		244
	Number Failed Steps Attempted:		26
	Number Jacobians Evaluated:		504
	Number Linear Solves:			504
	Number Failed Linear Solves:		0
	Number Residual Evaluations:		774
	Number Nonlinear Convergence Failures:	0
	Total Residual Load Time:		0.0219311 seconds
	Total Jacobian Load Time:		0.0009263 seconds
	Total Linear Solution Time:		0.0025362 seconds


***** Solution Summary *****
	Number Successful Steps Taken:		244
	Number Failed Steps Attempted:		26
	Number Jacobians Evaluated:		504
	Number Linear Solves:			504
	Number Failed Linear Solves:		0
	Number Residual Evaluations:		774
	Number Nonlinear Convergence Failures:	0
	Total Residual Load Time:		0.0219311 seconds
	Total Jacobian Load Time:		0.0009263 seconds
	Total Linear Solution Time:		0.0025362 seconds


 ***** Measure Functions ***** 

VQ_HOLD = 9.781159e-02 for AT = 9.000000e-10

VQ_READ = 7.452110e-02 for AT = 1.900000e-09

VQ_W0 = 7.201225e-08 for AT = 2.900000e-09

VQ_W1 = 7.452104e-02 for AT = 3.900000e-09

SNM_PROXY = 1.303801e-04 at time = 1.000000e-09
Measure Start Time= 1.000000e-09	Measure End Time= 2.000000e-09

SNM_MV = 6.519007e-02
Measure Start Time= 0.000000e+00	Measure End Time= 5.000000e-09

HOLD_SNM_MV = 6.519007e-02
Measure Start Time= 0.000000e+00	Measure End Time= 5.000000e-09

READ_DISTURB = 2.329049e-02
Measure Start Time= 0.000000e+00	Measure End Time= 5.000000e-09

READ_SNM_MV = -2.322530e+01
Measure Start Time= 0.000000e+00	Measure End Time= 5.000000e-09

WRITE_ERROR = 5.554790e-01
Measure Start Time= 0.000000e+00	Measure End Time= 5.000000e-09

WRITE_MARGIN_MV = 7.452104e+01
Measure Start Time= 0.000000e+00	Measure End Time= 5.000000e-09

NOISE_PROXY = 4.778253e-01
Measure Start Time= 0.000000e+00	Measure End Time= 5.000000e-09

NOISE_SIGMA = 4.778253e-01
Measure Start Time= 0.000000e+00	Measure End Time= 5.000000e-09

READ_FAIL = 9.998941e-01
Measure Start Time= 0.000000e+00	Measure End Time= 5.000000e-09

WRITE_FAIL = 4.456874e-02
Measure Start Time= 0.000000e+00	Measure End Time= 5.000000e-09

BER_PROXY = 9.999938e-01
Measure Start Time= 0.000000e+00	Measure End Time= 5.000000e-09

MEAS_SNM_MV = 6.519007e-02
Measure Start Time= 0.000000e+00	Measure End Time= 5.000000e-09

MEAS_NOISE = 4.778253e-01
Measure Start Time= 0.000000e+00	Measure End Time= 5.000000e-09

MEAS_BER = 9.999938e-01
Measure Start Time= 0.000000e+00	Measure End Time= 5.000000e-09

MEAS_HOLD_SNM_MV = 6.519007e-02
Measure Start Time= 0.000000e+00	Measure End Time= 5.000000e-09

MEAS_READ_SNM_MV = -2.322530e+01
Measure Start Time= 0.000000e+00	Measure End Time= 5.000000e-09

MEAS_WRITE_MARGIN_MV = 7.452104e+01
Measure Start Time= 0.000000e+00	Measure End Time= 5.000000e-09

MEAS_NOISE_SIGMA = 4.778253e-01
Measure Start Time= 0.000000e+00	Measure End Time= 5.000000e-09

MEAS_READ_FAIL = 9.998941e-01
Measure Start Time= 0.000000e+00	Measure End Time= 5.000000e-09

MEAS_WRITE_FAIL = 4.456874e-02
Measure Start Time= 0.000000e+00	Measure End Time= 5.000000e-09


***** Total Simulation Solvers Run Time: 0.0352434 seconds
***** Total Elapsed Run Time:            0.0688573 seconds
*****
***** End of Xyce(TM) Simulation
*****

Timing summary of 1 processor
                 Stats                   Count       CPU Time              Wall Time
---------------------------------------- ----- --------------------- ---------------------
Xyce                                         1        0.031 (100.0%)        0.071 (100.0%)
  Analysis                                   1        0.015 (48.39%)        0.033 (46.95%)
    Transient                                1        0.015 (48.39%)        0.033 (46.94%)
      Nonlinear Solve                      270        0.015 (48.39%)        0.029 (40.57%)
        Residual                           774        0.015 (48.39%)        0.022 (31.44%)
        Jacobian                           504        0.000 ( 0.00%)        0.001 ( 1.65%)
        Linear Solve                       504        0.000 ( 0.00%)        0.003 ( 3.90%)
      Successful Step                      244        0.000 ( 0.00%)        0.002 ( 2.79%)
      Failed Steps                          26        0.000 ( 0.00%)        0.000 ( 0.03%)
  Netlist Import                             1        0.000 ( 0.00%)        0.031 (43.40%)
    Parse Context                            1        0.000 ( 0.00%)        0.024 (33.66%)
    Distribute Devices                       1        0.000 ( 0.00%)        0.005 ( 7.41%)
    Verify Devices                           1        0.000 ( 0.00%)        0.000 ( 0.02%)
    Instantiate                              1        0.000 ( 0.00%)        0.000 ( 0.21%)
  Late Initialization                        1        0.000 ( 0.00%)        0.001 ( 1.76%)
    Global Indices                           1        0.000 ( 0.00%)        0.000 ( 0.13%)
  Setup Matrix Structure                     1        0.000 ( 0.00%)        0.000 ( 0.27%)

