
*****
***** Welcome to the Xyce(TM) Parallel Electronic Simulator
*****
***** This is version XyceNF Release 7.10.0
***** Date: Mon Apr 13 22:52:28  2026


***** Executing netlist C:\Users\daily\AppData\Local\Temp\sram_spice_workspace\ff_t298_v0p70\ff_t298_v0p70.sp

***** Reading and parsing netlist...
Netlist warning in file
 C:\Users\daily\AppData\Local\Temp\sram_spice_workspace\ff_t298_v0p70\ff_t298_v0p70.sp
 at or near line 7
 Unrecognized .OPTIONS package or parameter NOINIT will be ignored
Netlist warning in file
 C:\Users\daily\AppData\Local\Temp\sram_spice_workspace\ff_t298_v0p70\ff_t298_v0p70.sp
 at or near line 8
 Option name missing, or SPICE-style option not supported in Xyce
Netlist warning in file
 C:\Users\daily\AppData\Local\Temp\sram_spice_workspace\ff_t298_v0p70\ff_t298_v0p70.sp
 at or near line 8
 Unrecognized dot line will be ignored
Netlist warning in file
 C:\Users\daily\AppData\Local\Temp\sram_spice_workspace\ff_t298_v0p70\ff_t298_v0p70.sp
 at or near line 47
 Unrecognized dot line will be ignored
Netlist warning: No print specified
Netlist warning in file
 C:/Users/daily/AppData/Local/Temp/sram_spice_workspace/ff_t298_v0p70/assets/asap7_xyce/7nm_FF_160803_l107.pm
 at or near line 484
 No model parameter VERSION found for model PMOS_SRAM of type PMOS, parameter
 ignored.
Netlist warning in file
 C:/Users/daily/AppData/Local/Temp/sram_spice_workspace/ff_t298_v0p70/assets/asap7_xyce/7nm_FF_160803_l107.pm
 at or near line 227
 No model parameter VERSION found for model NMOS_SRAM of type NMOS, parameter
 ignored.
Netlist warning in file
 C:/Users/daily/AppData/Local/Temp/sram_spice_workspace/ff_t298_v0p70/assets/asap7_xyce/7nm_FF_160803_l107.pm
 at or near line 227
 Device model NMOS_SRAM: ADMSbsimcmg: Parameter EOTACC value 1e-10 out of
 range [ 0.1*1.0e-9,  (+inf) [
***** Setting up topology...

***** Device Count Summary ...
       M level 107 (BSIM-CMG FINFET v107.0.0)  6
       V level 1 (Independent Voltage Source)  4
       -----------------------------------------
       Total Devices                          10
***** Setting up matrix structure...
***** Number of Unknowns = 22
***** Initializing...

***** Beginning Transient Calculation...

***** Percent complete: 1.20525 %
***** Current system time: Mon Apr 13 22:52:29 2026
***** Estimated time to completion:  0 sec.

***** Percent complete: 2.35725 %
***** Current system time: Mon Apr 13 22:52:29 2026
***** Estimated time to completion:  0 sec.

***** Percent complete: 4.08525 %
***** Current system time: Mon Apr 13 22:52:29 2026
***** Estimated time to completion:  0 sec.

***** Percent complete: 5.23725 %
***** Current system time: Mon Apr 13 22:52:29 2026
***** Estimated time to completion:  0 sec.

***** Percent complete: 7.54125 %
***** Current system time: Mon Apr 13 22:52:29 2026
***** Estimated time to completion:  0 sec.

***** Percent complete: 12.1493 %
***** Current system time: Mon Apr 13 22:52:29 2026
***** Estimated time to completion:  0 sec.

***** Percent complete: 18 %
***** Current system time: Mon Apr 13 22:52:29 2026
***** Estimated time to completion:  0 sec.

***** Percent complete: 19.0317 %
***** Current system time: Mon Apr 13 22:52:29 2026
***** Estimated time to completion:  0 sec.

***** Percent complete: 20.0456 %
***** Current system time: Mon Apr 13 22:52:29 2026
***** Estimated time to completion:  0 sec.

***** Percent complete: 21.8703 %
***** Current system time: Mon Apr 13 22:52:29 2026
***** Estimated time to completion:  0 sec.

***** Percent complete: 23.5386 %
***** Current system time: Mon Apr 13 22:52:29 2026
***** Estimated time to completion:  0 sec.

***** Percent complete: 26.8751 %
***** Current system time: Mon Apr 13 22:52:29 2026
***** Estimated time to completion:  0 sec.

***** Percent complete: 33.5482 %
***** Current system time: Mon Apr 13 22:52:29 2026
***** Estimated time to completion:  0 sec.

***** Percent complete: 39.8 %
***** Current system time: Mon Apr 13 22:52:29 2026
***** Estimated time to completion:  0 sec.

***** Percent complete: 41.044 %
***** Current system time: Mon Apr 13 22:52:29 2026
***** Estimated time to completion:  0 sec.

***** Percent complete: 42.068 %
***** Current system time: Mon Apr 13 22:52:29 2026
***** Estimated time to completion:  0 sec.

***** Percent complete: 44.116 %
***** Current system time: Mon Apr 13 22:52:29 2026
***** Estimated time to completion:  0 sec.

***** Percent complete: 48.212 %
***** Current system time: Mon Apr 13 22:52:29 2026
***** Estimated time to completion:  0 sec.

***** Percent complete: 56.404 %
***** Current system time: Mon Apr 13 22:52:29 2026
***** Estimated time to completion:  0 sec.

***** Percent complete: 59.8 %
***** Current system time: Mon Apr 13 22:52:29 2026
***** Estimated time to completion:  0 sec.

***** Percent complete: 61.2796 %
***** Current system time: Mon Apr 13 22:52:29 2026
***** Estimated time to completion:  0 sec.

***** Percent complete: 62.2875 %
***** Current system time: Mon Apr 13 22:52:29 2026
***** Estimated time to completion:  0 sec.

***** Percent complete: 64.3034 %
***** Current system time: Mon Apr 13 22:52:29 2026
***** Estimated time to completion:  0 sec.

***** Percent complete: 68.3351 %
***** Current system time: Mon Apr 13 22:52:29 2026
***** Estimated time to completion:  0 sec.

***** Percent complete: 76.3985 %
***** Current system time: Mon Apr 13 22:52:29 2026
***** Estimated time to completion:  0 sec.

***** Percent complete: 78 %
***** Current system time: Mon Apr 13 22:52:29 2026
***** Estimated time to completion:  0 sec.

***** Percent complete: 79.0687 %
***** Current system time: Mon Apr 13 22:52:29 2026
***** Estimated time to completion:  0 sec.

***** Percent complete: 80.073 %
***** Current system time: Mon Apr 13 22:52:29 2026
***** Estimated time to completion:  0 sec.

***** Percent complete: 81.1951 %
***** Current system time: Mon Apr 13 22:52:29 2026
***** Estimated time to completion:  0 sec.

***** Percent complete: 82.326 %
***** Current system time: Mon Apr 13 22:52:29 2026
***** Estimated time to completion:  0 sec.

***** Percent complete: 84.0225 %
***** Current system time: Mon Apr 13 22:52:29 2026
***** Estimated time to completion:  0 sec.

***** Percent complete: 85.1534 %
***** Current system time: Mon Apr 13 22:52:29 2026
***** Estimated time to completion:  0 sec.

***** Percent complete: 87.4153 %
***** Current system time: Mon Apr 13 22:52:29 2026
***** Estimated time to completion:  0 sec.

***** Percent complete: 91.9391 %
***** Current system time: Mon Apr 13 22:52:29 2026
***** Estimated time to completion:  0 sec.

***** Problem read in and set up time: 0.035502 seconds
 ***** DCOP time: 0.0004366 seconds.  Breakdown follows:
	Number Successful Steps Taken:		0
	Number Failed Steps Attempted:		0
	Number Jacobians Evaluated:		0
	Number Linear Solves:			0
	Number Failed Linear Solves:		0
	Number Residual Evaluations:		0
	Number Nonlinear Convergence Failures:	0
	Total Residual Load Time:		0 seconds
	Total Jacobian Load Time:		0 seconds
	Total Linear Solution Time:		0 seconds

 ***** Transient Stepping time: 0.0250609 seconds.  Breakdown follows:
	Number Successful Steps Taken:		224
	Number Failed Steps Attempted:		23
	Number Jacobians Evaluated:		465
	Number Linear Solves:			465
	Number Failed Linear Solves:		0
	Number Residual Evaluations:		712
	Number Nonlinear Convergence Failures:	0
	Total Residual Load Time:		0.0167657 seconds
	Total Jacobian Load Time:		0.0007046 seconds
	Total Linear Solution Time:		0.0018873 seconds


***** Solution Summary *****
	Number Successful Steps Taken:		224
	Number Failed Steps Attempted:		23
	Number Jacobians Evaluated:		465
	Number Linear Solves:			465
	Number Failed Linear Solves:		0
	Number Residual Evaluations:		712
	Number Nonlinear Convergence Failures:	0
	Total Residual Load Time:		0.0167657 seconds
	Total Jacobian Load Time:		0.0007046 seconds
	Total Linear Solution Time:		0.0018873 seconds


 ***** Measure Functions ***** 

VQ_HOLD = 1.209739e-01 for AT = 9.000000e-10

VQ_READ = 9.340365e-02 for AT = 1.900000e-09

VQ_W0 = 6.440809e-08 for AT = 2.900000e-09

VQ_W1 = 9.340305e-02 for AT = 3.900000e-09

SNM_PROXY = 6.055290e-01 at time = 1.000000e-09
Measure Start Time= 1.000000e-09	Measure End Time= 2.000000e-09

SNM_MV = 3.027645e+02
Measure Start Time= 0.000000e+00	Measure End Time= 5.000000e-09

HOLD_SNM_MV = 3.027645e+02
Measure Start Time= 0.000000e+00	Measure End Time= 5.000000e-09

READ_DISTURB = 2.757023e-02
Measure Start Time= 0.000000e+00	Measure End Time= 5.000000e-09

READ_SNM_MV = 2.751943e+02
Measure Start Time= 0.000000e+00	Measure End Time= 5.000000e-09

WRITE_ERROR = 6.065970e-01
Measure Start Time= 0.000000e+00	Measure End Time= 5.000000e-09

WRITE_MARGIN_MV = 9.340305e+01
Measure Start Time= 0.000000e+00	Measure End Time= 5.000000e-09

NOISE_PROXY = 4.726696e-01
Measure Start Time= 0.000000e+00	Measure End Time= 5.000000e-09

NOISE_SIGMA = 4.726696e-01
Measure Start Time= 0.000000e+00	Measure End Time= 5.000000e-09

READ_FAIL = 5.955545e-13
Measure Start Time= 0.000000e+00	Measure End Time= 5.000000e-09

WRITE_FAIL = 4.384084e-03
Measure Start Time= 0.000000e+00	Measure End Time= 5.000000e-09

BER_PROXY = 1.155151e-08
Measure Start Time= 0.000000e+00	Measure End Time= 5.000000e-09

MEAS_SNM_MV = 3.027645e+02
Measure Start Time= 0.000000e+00	Measure End Time= 5.000000e-09

MEAS_NOISE = 4.726696e-01
Measure Start Time= 0.000000e+00	Measure End Time= 5.000000e-09

MEAS_BER = 1.155151e-08
Measure Start Time= 0.000000e+00	Measure End Time= 5.000000e-09

MEAS_HOLD_SNM_MV = 3.027645e+02
Measure Start Time= 0.000000e+00	Measure End Time= 5.000000e-09

MEAS_READ_SNM_MV = 2.751943e+02
Measure Start Time= 0.000000e+00	Measure End Time= 5.000000e-09

MEAS_WRITE_MARGIN_MV = 9.340305e+01
Measure Start Time= 0.000000e+00	Measure End Time= 5.000000e-09

MEAS_NOISE_SIGMA = 4.726696e-01
Measure Start Time= 0.000000e+00	Measure End Time= 5.000000e-09

MEAS_READ_FAIL = 5.955545e-13
Measure Start Time= 0.000000e+00	Measure End Time= 5.000000e-09

MEAS_WRITE_FAIL = 4.384084e-03
Measure Start Time= 0.000000e+00	Measure End Time= 5.000000e-09


***** Total Simulation Solvers Run Time: 0.0271962 seconds
***** Total Elapsed Run Time:            0.0626976 seconds
*****
***** End of Xyce(TM) Simulation
*****

Timing summary of 1 processor
                 Stats                   Count       CPU Time              Wall Time
---------------------------------------- ----- --------------------- ---------------------
Xyce                                         1        0.046 (100.0%)        0.065 (100.0%)
  Analysis                                   1        0.015 (32.61%)        0.026 (39.30%)
    Transient                                1        0.015 (32.61%)        0.026 (39.29%)
      Nonlinear Solve                      247        0.015 (32.61%)        0.022 (34.04%)
        Residual                           712        0.015 (32.61%)        0.017 (26.30%)
        Jacobian                           465        0.000 ( 0.00%)        0.001 ( 1.39%)
        Linear Solve                       465        0.000 ( 0.00%)        0.002 ( 3.20%)
      Successful Step                      224        0.000 ( 0.00%)        0.001 ( 2.15%)
      Failed Steps                          23        0.000 ( 0.00%)        0.000 ( 0.03%)
  Netlist Import                             1        0.016 (34.78%)        0.033 (50.98%)
    Parse Context                            1        0.000 ( 0.00%)        0.027 (41.46%)
    Distribute Devices                       1        0.016 (34.78%)        0.005 ( 7.33%)
    Verify Devices                           1        0.000 ( 0.00%)        0.000 ( 0.01%)
    Instantiate                              1        0.000 ( 0.00%)        0.000 ( 0.21%)
  Late Initialization                        1        0.000 ( 0.00%)        0.001 ( 1.63%)
    Global Indices                           1        0.000 ( 0.00%)        0.000 ( 0.11%)
  Setup Matrix Structure                     1        0.000 ( 0.00%)        0.000 ( 0.23%)

