
*****
***** Welcome to the Xyce(TM) Parallel Electronic Simulator
*****
***** This is version XyceNF Release 7.10.0
***** Date: Mon Apr 13 22:52:23  2026


***** Executing netlist C:\Users\daily\AppData\Local\Temp\sram_spice_workspace\tt_t233_v0p63\tt_t233_v0p63.sp

***** Reading and parsing netlist...
Netlist warning in file
 C:\Users\daily\AppData\Local\Temp\sram_spice_workspace\tt_t233_v0p63\tt_t233_v0p63.sp
 at or near line 7
 Unrecognized .OPTIONS package or parameter NOINIT will be ignored
Netlist warning in file
 C:\Users\daily\AppData\Local\Temp\sram_spice_workspace\tt_t233_v0p63\tt_t233_v0p63.sp
 at or near line 8
 Option name missing, or SPICE-style option not supported in Xyce
Netlist warning in file
 C:\Users\daily\AppData\Local\Temp\sram_spice_workspace\tt_t233_v0p63\tt_t233_v0p63.sp
 at or near line 8
 Unrecognized dot line will be ignored
Netlist warning in file
 C:\Users\daily\AppData\Local\Temp\sram_spice_workspace\tt_t233_v0p63\tt_t233_v0p63.sp
 at or near line 47
 Unrecognized dot line will be ignored
Netlist warning: No print specified
Netlist warning in file
 C:/Users/daily/AppData/Local/Temp/sram_spice_workspace/tt_t233_v0p63/assets/asap7_xyce/7nm_TT_160803_l107.pm
 at or near line 483
 No model parameter VERSION found for model PMOS_SRAM of type PMOS, parameter
 ignored.
Netlist warning in file
 C:/Users/daily/AppData/Local/Temp/sram_spice_workspace/tt_t233_v0p63/assets/asap7_xyce/7nm_TT_160803_l107.pm
 at or near line 227
 No model parameter VERSION found for model NMOS_SRAM of type NMOS, parameter
 ignored.
Netlist warning in file
 C:/Users/daily/AppData/Local/Temp/sram_spice_workspace/tt_t233_v0p63/assets/asap7_xyce/7nm_TT_160803_l107.pm
 at or near line 227
 Device model NMOS_SRAM: ADMSbsimcmg: Parameter EOTACC value 1e-10 out of
 range [ 0.1*1.0e-9,  (+inf) [
***** Setting up topology...

***** Device Count Summary ...
       M level 107 (BSIM-CMG FINFET v107.0.0)  6
       V level 1 (Independent Voltage Source)  4
       -----------------------------------------
       Total Devices                          10
***** Setting up matrix structure...
***** Number of Unknowns = 22
***** Initializing...

***** Beginning Transient Calculation...

***** Percent complete: 1.06125 %
***** Current system time: Mon Apr 13 22:52:23 2026
***** Estimated time to completion:  1 sec.

***** Percent complete: 2.21325 %
***** Current system time: Mon Apr 13 22:52:23 2026
***** Estimated time to completion:  0 sec.

***** Percent complete: 3.36525 %
***** Current system time: Mon Apr 13 22:52:23 2026
***** Estimated time to completion:  0 sec.

***** Percent complete: 4.51725 %
***** Current system time: Mon Apr 13 22:52:23 2026
***** Estimated time to completion:  0 sec.

***** Percent complete: 5.66925 %
***** Current system time: Mon Apr 13 22:52:23 2026
***** Estimated time to completion:  0 sec.

***** Percent complete: 7.97325 %
***** Current system time: Mon Apr 13 22:52:23 2026
***** Estimated time to completion:  0 sec.

***** Percent complete: 12.5812 %
***** Current system time: Mon Apr 13 22:52:23 2026
***** Estimated time to completion:  0 sec.

***** Percent complete: 18 %
***** Current system time: Mon Apr 13 22:52:23 2026
***** Estimated time to completion:  0 sec.

***** Percent complete: 19.014 %
***** Current system time: Mon Apr 13 22:52:23 2026
***** Estimated time to completion:  0 sec.

***** Percent complete: 20.027 %
***** Current system time: Mon Apr 13 22:52:23 2026
***** Estimated time to completion:  0 sec.

***** Percent complete: 21.0601 %
***** Current system time: Mon Apr 13 22:52:23 2026
***** Estimated time to completion:  0 sec.

***** Percent complete: 22.1012 %
***** Current system time: Mon Apr 13 22:52:23 2026
***** Estimated time to completion:  0 sec.

***** Percent complete: 23.638 %
***** Current system time: Mon Apr 13 22:52:23 2026
***** Estimated time to completion:  0 sec.

***** Percent complete: 25.0844 %
***** Current system time: Mon Apr 13 22:52:23 2026
***** Estimated time to completion:  0 sec.

***** Percent complete: 27.9773 %
***** Current system time: Mon Apr 13 22:52:23 2026
***** Estimated time to completion:  0 sec.

***** Percent complete: 33.763 %
***** Current system time: Mon Apr 13 22:52:23 2026
***** Estimated time to completion:  0 sec.

***** Percent complete: 39.8 %
***** Current system time: Mon Apr 13 22:52:23 2026
***** Estimated time to completion:  0 sec.

***** Percent complete: 41.3 %
***** Current system time: Mon Apr 13 22:52:23 2026
***** Estimated time to completion:  0 sec.

***** Percent complete: 42.58 %
***** Current system time: Mon Apr 13 22:52:23 2026
***** Estimated time to completion:  0 sec.

***** Percent complete: 45.14 %
***** Current system time: Mon Apr 13 22:52:23 2026
***** Estimated time to completion:  0 sec.

***** Percent complete: 50.26 %
***** Current system time: Mon Apr 13 22:52:23 2026
***** Estimated time to completion:  0 sec.

***** Percent complete: 59.8 %
***** Current system time: Mon Apr 13 22:52:23 2026
***** Estimated time to completion:  0 sec.

***** Percent complete: 61.0188 %
***** Current system time: Mon Apr 13 22:52:24 2026
***** Estimated time to completion:  0 sec.

***** Percent complete: 63.145 %
***** Current system time: Mon Apr 13 22:52:24 2026
***** Estimated time to completion:  0 sec.

***** Percent complete: 65.98 %
***** Current system time: Mon Apr 13 22:52:24 2026
***** Estimated time to completion:  0 sec.

***** Percent complete: 71.6499 %
***** Current system time: Mon Apr 13 22:52:24 2026
***** Estimated time to completion:  0 sec.

***** Percent complete: 78 %
***** Current system time: Mon Apr 13 22:52:24 2026
***** Estimated time to completion:  0 sec.

***** Percent complete: 79.1407 %
***** Current system time: Mon Apr 13 22:52:24 2026
***** Estimated time to completion:  0 sec.

***** Percent complete: 80.155 %
***** Current system time: Mon Apr 13 22:52:24 2026
***** Estimated time to completion:  0 sec.

***** Percent complete: 81.2148 %
***** Current system time: Mon Apr 13 22:52:24 2026
***** Estimated time to completion:  0 sec.

***** Percent complete: 82.3645 %
***** Current system time: Mon Apr 13 22:52:24 2026
***** Estimated time to completion:  0 sec.

***** Percent complete: 83.5141 %
***** Current system time: Mon Apr 13 22:52:24 2026
***** Estimated time to completion:  0 sec.

***** Percent complete: 84.5488 %
***** Current system time: Mon Apr 13 22:52:24 2026
***** Estimated time to completion:  0 sec.

***** Percent complete: 85.5835 %
***** Current system time: Mon Apr 13 22:52:24 2026
***** Estimated time to completion:  0 sec.

***** Percent complete: 87.6529 %
***** Current system time: Mon Apr 13 22:52:24 2026
***** Estimated time to completion:  0 sec.

***** Percent complete: 91.7916 %
***** Current system time: Mon Apr 13 22:52:24 2026
***** Estimated time to completion:  0 sec.

***** Problem read in and set up time: 0.0663017 seconds
 ***** DCOP time: 0.0072307 seconds.  Breakdown follows:
	Number Successful Steps Taken:		0
	Number Failed Steps Attempted:		0
	Number Jacobians Evaluated:		0
	Number Linear Solves:			0
	Number Failed Linear Solves:		0
	Number Residual Evaluations:		0
	Number Nonlinear Convergence Failures:	0
	Total Residual Load Time:		0 seconds
	Total Jacobian Load Time:		0 seconds
	Total Linear Solution Time:		0 seconds

 ***** Transient Stepping time: 0.0432638 seconds.  Breakdown follows:
	Number Successful Steps Taken:		254
	Number Failed Steps Attempted:		29
	Number Jacobians Evaluated:		536
	Number Linear Solves:			536
	Number Failed Linear Solves:		0
	Number Residual Evaluations:		819
	Number Nonlinear Convergence Failures:	1
	Total Residual Load Time:		0.0267515 seconds
	Total Jacobian Load Time:		0.0012288 seconds
	Total Linear Solution Time:		0.0041836 seconds


***** Solution Summary *****
	Number Successful Steps Taken:		254
	Number Failed Steps Attempted:		29
	Number Jacobians Evaluated:		536
	Number Linear Solves:			536
	Number Failed Linear Solves:		0
	Number Residual Evaluations:		819
	Number Nonlinear Convergence Failures:	1
	Total Residual Load Time:		0.0267515 seconds
	Total Jacobian Load Time:		0.0012288 seconds
	Total Linear Solution Time:		0.0041836 seconds


 ***** Measure Functions ***** 

VQ_HOLD = 9.465345e-02 for AT = 9.000000e-10

VQ_READ = 7.198030e-02 for AT = 1.900000e-09

VQ_W0 = 5.408695e-07 for AT = 2.900000e-09

VQ_W1 = 7.198018e-02 for AT = 3.900000e-09

SNM_PROXY = 1.256611e-04 at time = 1.000000e-09
Measure Start Time= 1.000000e-09	Measure End Time= 2.000000e-09

SNM_MV = 6.283057e-02
Measure Start Time= 0.000000e+00	Measure End Time= 5.000000e-09

HOLD_SNM_MV = 6.283057e-02
Measure Start Time= 0.000000e+00	Measure End Time= 5.000000e-09

READ_DISTURB = 2.267316e-02
Measure Start Time= 0.000000e+00	Measure End Time= 5.000000e-09

READ_SNM_MV = -2.261033e+01
Measure Start Time= 0.000000e+00	Measure End Time= 5.000000e-09

WRITE_ERROR = 5.580198e-01
Measure Start Time= 0.000000e+00	Measure End Time= 5.000000e-09

WRITE_MARGIN_MV = 7.198018e+01
Measure Start Time= 0.000000e+00	Measure End Time= 5.000000e-09

NOISE_PROXY = 4.788620e-01
Measure Start Time= 0.000000e+00	Measure End Time= 5.000000e-09

NOISE_SIGMA = 4.788620e-01
Measure Start Time= 0.000000e+00	Measure End Time= 5.000000e-09

READ_FAIL = 9.998857e-01
Measure Start Time= 0.000000e+00	Measure End Time= 5.000000e-09

WRITE_FAIL = 6.022672e-02
Measure Start Time= 0.000000e+00	Measure End Time= 5.000000e-09

BER_PROXY = 9.999938e-01
Measure Start Time= 0.000000e+00	Measure End Time= 5.000000e-09

MEAS_SNM_MV = 6.283057e-02
Measure Start Time= 0.000000e+00	Measure End Time= 5.000000e-09

MEAS_NOISE = 4.788620e-01
Measure Start Time= 0.000000e+00	Measure End Time= 5.000000e-09

MEAS_BER = 9.999938e-01
Measure Start Time= 0.000000e+00	Measure End Time= 5.000000e-09

MEAS_HOLD_SNM_MV = 6.283057e-02
Measure Start Time= 0.000000e+00	Measure End Time= 5.000000e-09

MEAS_READ_SNM_MV = -2.261033e+01
Measure Start Time= 0.000000e+00	Measure End Time= 5.000000e-09

MEAS_WRITE_MARGIN_MV = 7.198018e+01
Measure Start Time= 0.000000e+00	Measure End Time= 5.000000e-09

MEAS_NOISE_SIGMA = 4.788620e-01
Measure Start Time= 0.000000e+00	Measure End Time= 5.000000e-09

MEAS_READ_FAIL = 9.998857e-01
Measure Start Time= 0.000000e+00	Measure End Time= 5.000000e-09

MEAS_WRITE_FAIL = 6.022672e-02
Measure Start Time= 0.000000e+00	Measure End Time= 5.000000e-09


***** Total Simulation Solvers Run Time: 0.0526574 seconds
***** Total Elapsed Run Time:            0.118953 seconds
*****
***** End of Xyce(TM) Simulation
*****

Timing summary of 1 processor
                 Stats                   Count       CPU Time              Wall Time
---------------------------------------- ----- --------------------- ---------------------
Xyce                                         1        0.015 (100.0%)        0.123 (100.0%)
  Analysis                                   1        0.015 (100.0%)        0.051 (41.02%)
    Transient                                1        0.015 (100.0%)        0.051 (41.02%)
      Nonlinear Solve                      283        0.015 (100.0%)        0.037 (29.97%)
        Residual                           819        0.015 (100.0%)        0.027 (22.14%)
        Jacobian                           536        0.000 ( 0.00%)        0.002 ( 1.25%)
        Linear Solve                       536        0.000 ( 0.00%)        0.004 ( 3.64%)
      Successful Step                      254        0.000 ( 0.00%)        0.003 ( 2.04%)
      Failed Steps                          29        0.000 ( 0.00%)        0.000 ( 0.02%)
        Nonlinear Failure                    1        0.000 ( 0.00%)        0.000 (<0.01%)
  Netlist Import                             1        0.000 ( 0.00%)        0.049 (39.86%)
    Parse Context                            1        0.000 ( 0.00%)        0.023 (18.61%)
    Distribute Devices                       1        0.000 ( 0.00%)        0.010 ( 7.78%)
    Verify Devices                           1        0.000 ( 0.00%)        0.000 (<0.01%)
    Instantiate                              1        0.000 ( 0.00%)        0.001 ( 0.88%)
  Late Initialization                        1        0.000 ( 0.00%)        0.007 ( 6.05%)
    Global Indices                           1        0.000 ( 0.00%)        0.000 ( 0.36%)
  Setup Matrix Structure                     1        0.000 ( 0.00%)        0.002 ( 1.57%)

