
Note: No compatibility mode selected!


Circuit: * freepdk45/openram 6t sram ngspice template (predictive model include)

Doing analysis at TEMP = 125.000000 and TNOM = 27.000000

Using SPARSE 1.3 as Direct Linear Solver
Warning: toxe, toxp and dtox all given and toxe != toxp + dtox; dtox ignored.
Operating point simulation skipped by 'uic',
  now using transient initial conditions.

No. of Data Rows : 5040
vq_hold             =  1.239281e-01
vq_read             =  9.930505e-01
vq_w0               =  9.930487e-01
vq_w1               =  9.997431e-01
snm_proxy           =  8.506501e-11 at=  1.000100e-09
MEAS_CORNER=ff
MEAS_TEMP_K=398.150000
MEAS_VDD=1.000000
MEAS_SNM_MV=4.25325E-08
MEAS_NOISE=0.869251
MEAS_BER=0.999994
MEAS_HOLD_SNM_MV=4.25325E-08
MEAS_READ_SNM_MV=-869.122
MEAS_WRITE_MARGIN_MV=999.743
MEAS_NOISE_SIGMA=0.869251
MEAS_READ_FAIL=1
MEAS_WRITE_FAIL=2.76361E-52
ngspice-45.2 done
