
Note: No compatibility mode selected!


Circuit: * freepdk45/openram 6t sram ngspice template (predictive model include)

Doing analysis at TEMP = 25.000000 and TNOM = 27.000000

Using SPARSE 1.3 as Direct Linear Solver
Operating point simulation skipped by 'uic',
  now using transient initial conditions.

No. of Data Rows : 5040
vq_hold             =  8.707150e-02
vq_read             =  1.204281e-01
vq_w0               =  2.837622e-06
vq_w1               =  1.204281e-01
snm_proxy           =  2.047181e-10 at=  1.000100e-09
MEAS_CORNER=tt
MEAS_TEMP_K=298.150000
MEAS_VDD=0.900000
MEAS_SNM_MV=1.02359E-07
MEAS_NOISE=0.470158
MEAS_BER=0.999994
MEAS_HOLD_SNM_MV=1.02359E-07
MEAS_READ_SNM_MV=-33.3566
MEAS_WRITE_MARGIN_MV=120.428
MEAS_NOISE_SIGMA=0.470158
MEAS_READ_FAIL=0.99997
MEAS_WRITE_FAIL=0.000150182
ngspice-45.2 done
