
Note: No compatibility mode selected!


Circuit: * freepdk45/openram 6t sram ngspice template (predictive model include)

Doing analysis at TEMP = 25.000000 and TNOM = 27.000000

Using SPARSE 1.3 as Direct Linear Solver
Warning: toxe, toxp and dtox all given and toxe != toxp + dtox; dtox ignored.
Operating point simulation skipped by 'uic',
  now using transient initial conditions.

No. of Data Rows : 5040
vq_hold             =  9.123915e-02
vq_read             =  1.256011e-01
vq_w0               =  5.892588e-06
vq_w1               =  1.256011e-01
snm_proxy           =  7.712501e-10 at=  1.000100e-09
MEAS_CORNER=ff
MEAS_TEMP_K=298.150000
MEAS_VDD=0.900000
MEAS_SNM_MV=3.85625E-07
MEAS_NOISE=0.468402
MEAS_BER=0.999994
MEAS_HOLD_SNM_MV=3.85625E-07
MEAS_READ_SNM_MV=-34.3619
MEAS_WRITE_MARGIN_MV=125.601
MEAS_NOISE_SIGMA=0.468402
MEAS_READ_FAIL=0.999974
MEAS_WRITE_FAIL=7.86726E-05
ngspice-45.2 done
