
Note: No compatibility mode selected!


Circuit: * freepdk45/openram 6t sram ngspice template (predictive model include)

Doing analysis at TEMP = -40.000000 and TNOM = 27.000000

Using SPARSE 1.3 as Direct Linear Solver
Warning: toxe, toxp and dtox all given and toxe != toxp + dtox; dtox ignored.
Operating point simulation skipped by 'uic',
  now using transient initial conditions.

No. of Data Rows : 5040
vq_hold             =  9.371186e-02
vq_read             =  1.280962e-01
vq_w0               =  1.927841e-06
vq_w1               =  1.280962e-01
snm_proxy           =  1.569219e-09 at=  1.000100e-09
MEAS_CORNER=ff
MEAS_TEMP_K=233.150000
MEAS_VDD=1.000000
MEAS_SNM_MV=7.8461E-07
MEAS_NOISE=0.470336
MEAS_BER=0.999994
MEAS_HOLD_SNM_MV=7.8461E-07
MEAS_READ_SNM_MV=-34.3843
MEAS_WRITE_MARGIN_MV=128.096
MEAS_NOISE_SIGMA=0.470336
MEAS_READ_FAIL=0.999974
MEAS_WRITE_FAIL=5.75946E-05
ngspice-45.2 done
