
Note: No compatibility mode selected!


Circuit: * sky130 6t sram ngspice template (real pdk model include)

Doing analysis at TEMP = 25.000000 and TNOM = 27.000000

Using SPARSE 1.3 as Direct Linear Solver
Operating point simulation skipped by 'uic',
  now using transient initial conditions.

No. of Data Rows : 5046
vq_hold             =  1.244371e-01
vq_read             =  7.554468e-01
vq_w0               =  5.519687e-06
vq_w1               =  1.824013e-01
snm_proxy           =  4.107825e-15 at=  1.000100e-09
MEAS_CORNER=ff
MEAS_TEMP_K=298.150000
MEAS_VDD=1.600000
MEAS_SNM_MV=2.05391E-12
MEAS_NOISE=0.837381
MEAS_BER=0.999994
MEAS_HOLD_SNM_MV=2.05391E-12
MEAS_READ_SNM_MV=-631.01
MEAS_WRITE_MARGIN_MV=182.401
MEAS_NOISE_SIGMA=0.837381
MEAS_READ_FAIL=1
MEAS_WRITE_FAIL=6.49166E-08
ngspice-45.2 done
