
Note: No compatibility mode selected!


Circuit: * sky130 6t sram ngspice template (real pdk model include)

Doing analysis at TEMP = 25.000000 and TNOM = 27.000000

Using SPARSE 1.3 as Direct Linear Solver
Operating point simulation skipped by 'uic',
  now using transient initial conditions.

No. of Data Rows : 5047
vq_hold             =  1.464813e-01
vq_read             =  8.400994e-01
vq_w0               =  7.629328e-06
vq_w1               =  2.071780e-01
snm_proxy           =  3.219647e-15 at=  1.000700e-09
MEAS_CORNER=ff
MEAS_TEMP_K=298.150000
MEAS_VDD=1.800000
MEAS_SNM_MV=1.60982E-12
MEAS_NOISE=0.827794
MEAS_BER=0.999994
MEAS_HOLD_SNM_MV=1.60982E-12
MEAS_READ_SNM_MV=-693.618
MEAS_WRITE_MARGIN_MV=207.178
MEAS_NOISE_SIGMA=0.827794
MEAS_READ_FAIL=1
MEAS_WRITE_FAIL=2.93297E-09
ngspice-45.2 done
