
Note: No compatibility mode selected!


Circuit: * sky130 6t sram ngspice template (real pdk model include)

Doing analysis at TEMP = -40.000000 and TNOM = 27.000000

Using SPARSE 1.3 as Direct Linear Solver
Operating point simulation skipped by 'uic',
  now using transient initial conditions.

No. of Data Rows : 5049
vq_hold             =  1.252312e-01
vq_read             =  9.401789e-01
vq_w0               =  1.950000e+00
vq_w1               =  1.950000e+00
snm_proxy           =  8.437695e-15 at=  1.000100e-09
MEAS_CORNER=ff
MEAS_TEMP_K=233.150000
MEAS_VDD=1.950000
MEAS_SNM_MV=4.21885E-12
MEAS_NOISE=0.417922
MEAS_BER=0.999994
MEAS_HOLD_SNM_MV=4.21885E-12
MEAS_READ_SNM_MV=-814.948
MEAS_WRITE_MARGIN_MV=1950
MEAS_NOISE_SIGMA=0.417922
MEAS_READ_FAIL=1
MEAS_WRITE_FAIL=7.16243E-104
ngspice-45.2 done
