
Note: No compatibility mode selected!


Circuit: * sky130 6t sram ngspice template (real pdk model include)

Doing analysis at TEMP = 100.000000 and TNOM = 27.000000

Using SPARSE 1.3 as Direct Linear Solver
Operating point simulation skipped by 'uic',
  now using transient initial conditions.

No. of Data Rows : 5047
vq_hold             =  2.079160e-01
vq_read             =  1.753018e+00
vq_w0               =  1.949955e+00
vq_w1               =  1.950000e+00
snm_proxy           =  3.663736e-15 at=  1.000100e-09
MEAS_CORNER=ff
MEAS_TEMP_K=373.150000
MEAS_VDD=1.950000
MEAS_SNM_MV=1.83187E-12
MEAS_NOISE=0.79236
MEAS_BER=0.999994
MEAS_HOLD_SNM_MV=1.83187E-12
MEAS_READ_SNM_MV=-1545.1
MEAS_WRITE_MARGIN_MV=1950
MEAS_NOISE_SIGMA=0.79236
MEAS_READ_FAIL=1
MEAS_WRITE_FAIL=7.16243E-104
ngspice-45.2 done
