
Note: No compatibility mode selected!


Circuit: * sky130 6t sram ngspice template (real pdk model include)

Doing analysis at TEMP = -40.000000 and TNOM = 27.000000

Using SPARSE 1.3 as Direct Linear Solver
Operating point simulation skipped by 'uic',
  now using transient initial conditions.

No. of Data Rows : 5046
vq_hold             =  9.324016e-02
vq_read             =  7.654173e-01
vq_w0               =  1.352737e-07
vq_w1               =  1.615626e-01
snm_proxy           =  6.106227e-15 at=  1.012500e-09
MEAS_CORNER=ff
MEAS_TEMP_K=233.150000
MEAS_VDD=1.600000
MEAS_SNM_MV=3.05311E-12
MEAS_NOISE=0.869622
MEAS_BER=0.999994
MEAS_HOLD_SNM_MV=3.05311E-12
MEAS_READ_SNM_MV=-672.177
MEAS_WRITE_MARGIN_MV=161.563
MEAS_NOISE_SIGMA=0.869622
MEAS_READ_FAIL=1
MEAS_WRITE_FAIL=8.78258E-07
ngspice-45.2 done
