
Note: No compatibility mode selected!


Circuit: * sky130 6t sram ngspice template (real pdk model include)

Doing analysis at TEMP = -40.000000 and TNOM = 27.000000

Using SPARSE 1.3 as Direct Linear Solver
Operating point simulation skipped by 'uic',
  now using transient initial conditions.

No. of Data Rows : 5047
vq_hold             =  1.116056e-01
vq_read             =  8.595462e-01
vq_w0               =  2.095945e-07
vq_w1               =  1.824163e-01
snm_proxy           =  7.438494e-15 at=  1.000100e-09
MEAS_CORNER=ff
MEAS_TEMP_K=233.150000
MEAS_VDD=1.800000
MEAS_SNM_MV=3.71925E-12
MEAS_NOISE=0.864851
MEAS_BER=0.999994
MEAS_HOLD_SNM_MV=3.71925E-12
MEAS_READ_SNM_MV=-747.941
MEAS_WRITE_MARGIN_MV=182.416
MEAS_NOISE_SIGMA=0.864851
MEAS_READ_FAIL=1
MEAS_WRITE_FAIL=6.4795E-08
ngspice-45.2 done
