
Note: No compatibility mode selected!


Circuit: * sky130 6t sram ngspice template (real pdk model include)

Doing analysis at TEMP = 100.000000 and TNOM = 27.000000

Using SPARSE 1.3 as Direct Linear Solver
Operating point simulation skipped by 'uic',
  now using transient initial conditions.

No. of Data Rows : 5045
vq_hold             =  1.614933e-01
vq_read             =  2.035368e-01
vq_w0               =  9.976393e-05
vq_w1               =  2.030186e-01
snm_proxy           =  8.548717e-15 at=  1.001500e-09
MEAS_CORNER=ff
MEAS_TEMP_K=373.150000
MEAS_VDD=1.600000
MEAS_SNM_MV=4.27436E-12
MEAS_NOISE=0.462834
MEAS_BER=0.999994
MEAS_HOLD_SNM_MV=4.27436E-12
MEAS_READ_SNM_MV=-42.0435
MEAS_WRITE_MARGIN_MV=203.019
MEAS_NOISE_SIGMA=0.462834
MEAS_READ_FAIL=0.99999
MEAS_WRITE_FAIL=4.93297E-09
ngspice-45.2 done
