
Note: No compatibility mode selected!


Circuit: * sky130 6t sram ngspice template (real pdk model include)

Doing analysis at TEMP = -40.000000 and TNOM = 27.000000

Using SPARSE 1.3 as Direct Linear Solver
Operating point simulation skipped by 'uic',
  now using transient initial conditions.

No. of Data Rows : 5052
vq_hold             =  1.993083e-01
vq_read             =  1.922774e-01
vq_w0               =  2.382768e-06
vq_w1               =  1.922774e-01
snm_proxy           =  1.758593e-13 at=  1.000100e-09
MEAS_CORNER=fs
MEAS_TEMP_K=233.150000
MEAS_VDD=1.950000
MEAS_SNM_MV=8.79296E-11
MEAS_NOISE=0.454304
MEAS_BER=0.999994
MEAS_HOLD_SNM_MV=8.79296E-11
MEAS_READ_SNM_MV=-7.0309
MEAS_WRITE_MARGIN_MV=192.277
MEAS_NOISE_SIGMA=0.454304
MEAS_READ_FAIL=0.999199
MEAS_WRITE_FAIL=1.88892E-08
ngspice-45.2 done
