
Note: No compatibility mode selected!


Circuit: * sky130 6t sram ngspice template (real pdk model include)

Doing analysis at TEMP = -40.000000 and TNOM = 27.000000

Using SPARSE 1.3 as Direct Linear Solver
Operating point simulation skipped by 'uic',
  now using transient initial conditions.

No. of Data Rows : 5046
vq_hold             =  1.651438e-01
vq_read             =  8.572829e-01
vq_w0               =  1.107521e-06
vq_w1               =  1.410976e-01
snm_proxy           =  1.332268e-15 at=  1.030500e-09
MEAS_CORNER=fs
MEAS_TEMP_K=233.150000
MEAS_VDD=1.600000
MEAS_SNM_MV=6.66134E-13
MEAS_NOISE=0.888494
MEAS_BER=0.999994
MEAS_HOLD_SNM_MV=6.66134E-13
MEAS_READ_SNM_MV=-692.139
MEAS_WRITE_MARGIN_MV=141.098
MEAS_NOISE_SIGMA=0.888494
MEAS_READ_FAIL=1
MEAS_WRITE_FAIL=1.13396E-05
ngspice-45.2 done
