
Note: No compatibility mode selected!


Circuit: * sky130 6t sram ngspice template (real pdk model include)

Doing analysis at TEMP = 100.000000 and TNOM = 27.000000

Using SPARSE 1.3 as Direct Linear Solver
Operating point simulation skipped by 'uic',
  now using transient initial conditions.

No. of Data Rows : 5046
vq_hold             =  2.918343e-01
vq_read             =  2.139212e-01
vq_w0               =  5.495489e-04
vq_w1               =  2.139212e-01
snm_proxy           =  4.940492e-14 at=  1.000100e-09
MEAS_CORNER=fs
MEAS_TEMP_K=373.150000
MEAS_VDD=1.800000
MEAS_SNM_MV=2.47025E-11
MEAS_NOISE=0.483862
MEAS_BER=0.999994
MEAS_HOLD_SNM_MV=2.47025E-11
MEAS_READ_SNM_MV=-77.9131
MEAS_WRITE_MARGIN_MV=213.921
MEAS_NOISE_SIGMA=0.483862
MEAS_READ_FAIL=1
MEAS_WRITE_FAIL=1.26253E-09
ngspice-45.2 done
