
Note: No compatibility mode selected!


Circuit: * sky130 6t sram ngspice template (real pdk model include)

Doing analysis at TEMP = 25.000000 and TNOM = 27.000000

Using SPARSE 1.3 as Direct Linear Solver
Operating point simulation skipped by 'uic',
  now using transient initial conditions.

No. of Data Rows : 5046
vq_hold             =  2.129959e-01
vq_read             =  1.587956e-01
vq_w0               =  2.973933e-05
vq_w1               =  1.586225e-01
snm_proxy           =  3.486100e-14 at=  1.000300e-09
MEAS_CORNER=fs
MEAS_TEMP_K=298.150000
MEAS_VDD=1.600000
MEAS_SNM_MV=1.74305E-11
MEAS_NOISE=0.484306
MEAS_BER=0.999994
MEAS_HOLD_SNM_MV=1.74305E-11
MEAS_READ_SNM_MV=-54.2003
MEAS_WRITE_MARGIN_MV=158.622
MEAS_NOISE_SIGMA=0.484306
MEAS_READ_FAIL=0.999998
MEAS_WRITE_FAIL=1.26832E-06
ngspice-45.2 done
