
Note: No compatibility mode selected!


Circuit: * sky130 6t sram ngspice template (real pdk model include)

Doing analysis at TEMP = -40.000000 and TNOM = 27.000000

Using SPARSE 1.3 as Direct Linear Solver
Operating point simulation skipped by 'uic',
  now using transient initial conditions.

No. of Data Rows : 5048
vq_hold             =  4.912629e-02
vq_read             =  8.410641e-01
vq_w0               =  6.705783e-10
vq_w1               =  1.843136e-01
snm_proxy           =  2.220446e-16 at=  1.006500e-09
MEAS_CORNER=sf
MEAS_TEMP_K=233.150000
MEAS_VDD=1.800000
MEAS_SNM_MV=1.11022E-13
MEAS_NOISE=0.888767
MEAS_BER=0.999994
MEAS_HOLD_SNM_MV=1.11022E-13
MEAS_READ_SNM_MV=-791.938
MEAS_WRITE_MARGIN_MV=184.314
MEAS_NOISE_SIGMA=0.888767
MEAS_READ_FAIL=1
MEAS_WRITE_FAIL=5.11144E-08
ngspice-45.2 done
