
Note: No compatibility mode selected!


Circuit: * sky130 6t sram ngspice template (real pdk model include)

Doing analysis at TEMP = 25.000000 and TNOM = 27.000000

Using SPARSE 1.3 as Direct Linear Solver
Operating point simulation skipped by 'uic',
  now using transient initial conditions.

No. of Data Rows : 5047
vq_hold             =  5.294827e-02
vq_read             =  7.511597e-01
vq_w0               =  1.475672e-09
vq_w1               =  1.830544e-01
snm_proxy           =  1.110223e-16 at=  1.109500e-09
MEAS_CORNER=sf
MEAS_TEMP_K=298.150000
MEAS_VDD=1.600000
MEAS_SNM_MV=5.55111E-14
MEAS_NOISE=0.879178
MEAS_BER=0.999994
MEAS_HOLD_SNM_MV=5.55111E-14
MEAS_READ_SNM_MV=-698.211
MEAS_WRITE_MARGIN_MV=183.054
MEAS_NOISE_SIGMA=0.879178
MEAS_READ_FAIL=1
MEAS_WRITE_FAIL=5.98275E-08
ngspice-45.2 done
