
Note: No compatibility mode selected!


Circuit: * sky130 6t sram ngspice template (real pdk model include)

Doing analysis at TEMP = 100.000000 and TNOM = 27.000000

Using SPARSE 1.3 as Direct Linear Solver
Operating point simulation skipped by 'uic',
  now using transient initial conditions.

No. of Data Rows : 5046
vq_hold             =  9.871390e-02
vq_read             =  8.486175e-01
vq_w0               =  5.779981e-08
vq_w1               =  2.317486e-01
snm_proxy           =  7.549517e-15 at=  1.000100e-09
MEAS_CORNER=sf
MEAS_TEMP_K=373.150000
MEAS_VDD=1.800000
MEAS_SNM_MV=3.77476E-12
MEAS_NOISE=0.852238
MEAS_BER=0.999994
MEAS_HOLD_SNM_MV=3.77476E-12
MEAS_READ_SNM_MV=-749.904
MEAS_WRITE_MARGIN_MV=231.749
MEAS_NOISE_SIGMA=0.852238
MEAS_READ_FAIL=1
MEAS_WRITE_FAIL=1.35972E-10
ngspice-45.2 done
