
Note: No compatibility mode selected!


Circuit: * sky130 6t sram ngspice template (real pdk model include)

Doing analysis at TEMP = 100.000000 and TNOM = 27.000000

Using SPARSE 1.3 as Direct Linear Solver
Operating point simulation skipped by 'uic',
  now using transient initial conditions.

No. of Data Rows : 5046
vq_hold             =  7.790551e-02
vq_read             =  7.576730e-01
vq_w0               =  5.129667e-08
vq_w1               =  2.029901e-01
snm_proxy           =  1.110223e-16 at=  1.103500e-09
MEAS_CORNER=sf
MEAS_TEMP_K=373.150000
MEAS_VDD=1.600000
MEAS_SNM_MV=5.55111E-14
MEAS_NOISE=0.86142
MEAS_BER=0.999994
MEAS_HOLD_SNM_MV=5.55111E-14
MEAS_READ_SNM_MV=-679.767
MEAS_WRITE_MARGIN_MV=202.99
MEAS_NOISE_SIGMA=0.86142
MEAS_READ_FAIL=1
MEAS_WRITE_FAIL=4.95057E-09
ngspice-45.2 done
