
Note: No compatibility mode selected!


Circuit: * sky130 6t sram ngspice template (real pdk model include)

Doing analysis at TEMP = 25.000000 and TNOM = 27.000000

Using SPARSE 1.3 as Direct Linear Solver
Operating point simulation skipped by 'uic',
  now using transient initial conditions.

No. of Data Rows : 5047
vq_hold             =  7.012966e-02
vq_read             =  8.420437e-01
vq_w0               =  1.586795e-09
vq_w1               =  2.082809e-01
snm_proxy           =  5.662137e-15 at=  1.015500e-09
MEAS_CORNER=sf
MEAS_TEMP_K=298.150000
MEAS_VDD=1.800000
MEAS_SNM_MV=2.83107E-12
MEAS_NOISE=0.870985
MEAS_BER=0.999994
MEAS_HOLD_SNM_MV=2.83107E-12
MEAS_READ_SNM_MV=-771.914
MEAS_WRITE_MARGIN_MV=208.281
MEAS_NOISE_SIGMA=0.870985
MEAS_READ_FAIL=1
MEAS_WRITE_FAIL=2.55526E-09
ngspice-45.2 done
