
Note: No compatibility mode selected!


Circuit: * sky130 6t sram ngspice template (real pdk model include)

Doing analysis at TEMP = -40.000000 and TNOM = 27.000000

Using SPARSE 1.3 as Direct Linear Solver
Operating point simulation skipped by 'uic',
  now using transient initial conditions.

No. of Data Rows : 5047
vq_hold             =  3.500642e-02
vq_read             =  7.504831e-01
vq_w0               =  6.395402e-10
vq_w1               =  1.629015e-01
snm_proxy           =  0.000000e+00 at=  1.007500e-09
MEAS_CORNER=sf
MEAS_TEMP_K=233.150000
MEAS_VDD=1.600000
MEAS_SNM_MV=0
MEAS_NOISE=0.896266
MEAS_BER=0.999994
MEAS_HOLD_SNM_MV=0
MEAS_READ_SNM_MV=-715.477
MEAS_WRITE_MARGIN_MV=162.902
MEAS_NOISE_SIGMA=0.896266
MEAS_READ_FAIL=1
MEAS_WRITE_FAIL=7.42912E-07
ngspice-45.2 done
