
Note: No compatibility mode selected!


Circuit: * sky130 6t sram ngspice template (real pdk model include)

Doing analysis at TEMP = 100.000000 and TNOM = 27.000000

Using SPARSE 1.3 as Direct Linear Solver
Operating point simulation skipped by 'uic',
  now using transient initial conditions.

No. of Data Rows : 5047
vq_hold             =  1.154812e-01
vq_read             =  9.163990e-01
vq_w0               =  6.514164e-08
vq_w1               =  2.533898e-01
snm_proxy           =  9.436896e-15 at=  1.000100e-09
MEAS_CORNER=sf
MEAS_TEMP_K=373.150000
MEAS_VDD=1.950000
MEAS_SNM_MV=4.71845E-12
MEAS_NOISE=0.845755
MEAS_BER=0.999994
MEAS_HOLD_SNM_MV=4.71845E-12
MEAS_READ_SNM_MV=-800.918
MEAS_WRITE_MARGIN_MV=253.39
MEAS_NOISE_SIGMA=0.845755
MEAS_READ_FAIL=1
MEAS_WRITE_FAIL=9.0911E-12
ngspice-45.2 done
