
Note: No compatibility mode selected!


Circuit: * sky130 6t sram ngspice template (real pdk model include)

Doing analysis at TEMP = 25.000000 and TNOM = 27.000000

Using SPARSE 1.3 as Direct Linear Solver
Operating point simulation skipped by 'uic',
  now using transient initial conditions.

No. of Data Rows : 5048
vq_hold             =  8.388861e-02
vq_read             =  9.094681e-01
vq_w0               =  1.762137e-09
vq_w1               =  2.271024e-01
snm_proxy           =  8.437695e-15 at=  1.008500e-09
MEAS_CORNER=sf
MEAS_TEMP_K=298.150000
MEAS_VDD=1.950000
MEAS_SNM_MV=4.21885E-12
MEAS_NOISE=0.865143
MEAS_BER=0.999994
MEAS_HOLD_SNM_MV=4.21885E-12
MEAS_READ_SNM_MV=-825.579
MEAS_WRITE_MARGIN_MV=227.102
MEAS_NOISE_SIGMA=0.865143
MEAS_READ_FAIL=1
MEAS_WRITE_FAIL=2.43039E-10
ngspice-45.2 done
