
Note: No compatibility mode selected!


Circuit: * sky130 6t sram ngspice template (real pdk model include)

Doing analysis at TEMP = -40.000000 and TNOM = 27.000000

Using SPARSE 1.3 as Direct Linear Solver
Operating point simulation skipped by 'uic',
  now using transient initial conditions.

No. of Data Rows : 5048
vq_hold             =  8.472488e-02
vq_read             =  8.352019e-01
vq_w0               =  1.039969e-09
vq_w1               =  1.744633e-01
snm_proxy           =  6.328271e-15 at=  1.000300e-09
MEAS_CORNER=ss
MEAS_TEMP_K=233.150000
MEAS_VDD=1.800000
MEAS_SNM_MV=3.16414E-12
MEAS_NOISE=0.86847
MEAS_BER=0.999994
MEAS_HOLD_SNM_MV=3.16414E-12
MEAS_READ_SNM_MV=-750.477
MEAS_WRITE_MARGIN_MV=174.463
MEAS_NOISE_SIGMA=0.86847
MEAS_READ_FAIL=1
MEAS_WRITE_FAIL=1.75099E-07
ngspice-45.2 done
