
Note: No compatibility mode selected!


Circuit: * sky130 6t sram ngspice template (real pdk model include)

Doing analysis at TEMP = 25.000000 and TNOM = 27.000000

Using SPARSE 1.3 as Direct Linear Solver
Operating point simulation skipped by 'uic',
  now using transient initial conditions.

No. of Data Rows : 5048
vq_hold             =  1.340740e-01
vq_read             =  9.145656e-01
vq_w0               =  2.486455e-09
vq_w1               =  2.199580e-01
snm_proxy           =  3.108624e-15 at=  1.000100e-09
MEAS_CORNER=ss
MEAS_TEMP_K=298.150000
MEAS_VDD=1.950000
MEAS_SNM_MV=1.55431E-12
MEAS_NOISE=0.843853
MEAS_BER=0.999994
MEAS_HOLD_SNM_MV=1.55431E-12
MEAS_READ_SNM_MV=-780.492
MEAS_WRITE_MARGIN_MV=219.958
MEAS_NOISE_SIGMA=0.843853
MEAS_READ_FAIL=1
MEAS_WRITE_FAIL=5.93639E-10
ngspice-45.2 done
