
Note: No compatibility mode selected!


Circuit: * sky130 6t sram ngspice template (real pdk model include)

Doing analysis at TEMP = 100.000000 and TNOM = 27.000000

Using SPARSE 1.3 as Direct Linear Solver
Operating point simulation skipped by 'uic',
  now using transient initial conditions.

No. of Data Rows : 5046
vq_hold             =  1.587809e-01
vq_read             =  8.626158e-01
vq_w0               =  4.013004e-07
vq_w1               =  2.169189e-01
snm_proxy           =  2.886580e-15 at=  1.000300e-09
MEAS_CORNER=ss
MEAS_TEMP_K=373.150000
MEAS_VDD=1.800000
MEAS_SNM_MV=1.44329E-12
MEAS_NOISE=0.830764
MEAS_BER=0.999994
MEAS_HOLD_SNM_MV=1.44329E-12
MEAS_READ_SNM_MV=-703.835
MEAS_WRITE_MARGIN_MV=216.919
MEAS_NOISE_SIGMA=0.830764
MEAS_READ_FAIL=1
MEAS_WRITE_FAIL=8.67971E-10
ngspice-45.2 done
