
Note: No compatibility mode selected!


Circuit: * sky130 6t sram ngspice template (real pdk model include)

Doing analysis at TEMP = 100.000000 and TNOM = 27.000000

Using SPARSE 1.3 as Direct Linear Solver
Operating point simulation skipped by 'uic',
  now using transient initial conditions.

No. of Data Rows : 5046
vq_hold             =  1.328445e-01
vq_read             =  7.808640e-01
vq_w0               =  2.832768e-07
vq_w1               =  1.807325e-01
snm_proxy           =  1.110223e-16 at=  1.010500e-09
MEAS_CORNER=ss
MEAS_TEMP_K=373.150000
MEAS_VDD=1.600000
MEAS_SNM_MV=5.55111E-14
MEAS_NOISE=0.848533
MEAS_BER=0.999994
MEAS_HOLD_SNM_MV=5.55111E-14
MEAS_READ_SNM_MV=-648.019
MEAS_WRITE_MARGIN_MV=180.732
MEAS_NOISE_SIGMA=0.848533
MEAS_READ_FAIL=1
MEAS_WRITE_FAIL=7.99741E-08
ngspice-45.2 done
