
Note: No compatibility mode selected!


Circuit: * sky130 6t sram ngspice template (real pdk model include)

Doing analysis at TEMP = 25.000000 and TNOM = 27.000000

Using SPARSE 1.3 as Direct Linear Solver
Operating point simulation skipped by 'uic',
  now using transient initial conditions.

No. of Data Rows : 5047
vq_hold             =  1.173375e-01
vq_read             =  8.478486e-01
vq_w0               =  1.973550e-09
vq_w1               =  1.955989e-01
snm_proxy           =  3.996803e-15 at=  1.000300e-09
MEAS_CORNER=ss
MEAS_TEMP_K=298.150000
MEAS_VDD=1.800000
MEAS_SNM_MV=1.9984E-12
MEAS_NOISE=0.851506
MEAS_BER=0.999994
MEAS_HOLD_SNM_MV=1.9984E-12
MEAS_READ_SNM_MV=-730.511
MEAS_WRITE_MARGIN_MV=195.599
MEAS_NOISE_SIGMA=0.851506
MEAS_READ_FAIL=1
MEAS_WRITE_FAIL=1.2471E-08
ngspice-45.2 done
