
Note: No compatibility mode selected!


Circuit: * sky130 6t sram ngspice template (real pdk model include)

Doing analysis at TEMP = -40.000000 and TNOM = 27.000000

Using SPARSE 1.3 as Direct Linear Solver
Operating point simulation skipped by 'uic',
  now using transient initial conditions.

No. of Data Rows : 5048
vq_hold             =  9.845659e-02
vq_read             =  9.049647e-01
vq_w0               =  1.155139e-09
vq_w1               =  1.957469e-01
snm_proxy           =  0.000000e+00 at=  1.169500e-09
MEAS_CORNER=ss
MEAS_TEMP_K=233.150000
MEAS_VDD=1.950000
MEAS_SNM_MV=0
MEAS_NOISE=0.863402
MEAS_BER=0.999994
MEAS_HOLD_SNM_MV=0
MEAS_READ_SNM_MV=-806.508
MEAS_WRITE_MARGIN_MV=195.747
MEAS_NOISE_SIGMA=0.863402
MEAS_READ_FAIL=1
MEAS_WRITE_FAIL=1.22424E-08
ngspice-45.2 done
