
Note: No compatibility mode selected!


Circuit: * sky130 6t sram ngspice template (real pdk model include)

Doing analysis at TEMP = 25.000000 and TNOM = 27.000000

Using SPARSE 1.3 as Direct Linear Solver
Operating point simulation skipped by 'uic',
  now using transient initial conditions.

No. of Data Rows : 5049
vq_hold             =  9.537713e-02
vq_read             =  7.596469e-01
vq_w0               =  1.672070e-09
vq_w1               =  1.624971e-01
snm_proxy           =  5.551115e-16 at=  1.000300e-09
MEAS_CORNER=ss
MEAS_TEMP_K=298.150000
MEAS_VDD=1.600000
MEAS_SNM_MV=2.77556E-13
MEAS_NOISE=0.864388
MEAS_BER=0.999994
MEAS_HOLD_SNM_MV=2.77556E-13
MEAS_READ_SNM_MV=-664.27
MEAS_WRITE_MARGIN_MV=162.497
MEAS_NOISE_SIGMA=0.864388
MEAS_READ_FAIL=1
MEAS_WRITE_FAIL=7.81432E-07
ngspice-45.2 done
