
Note: No compatibility mode selected!


Circuit: * sky130 6t sram ngspice template (real pdk model include)

Doing analysis at TEMP = 100.000000 and TNOM = 27.000000

Using SPARSE 1.3 as Direct Linear Solver
Operating point simulation skipped by 'uic',
  now using transient initial conditions.

No. of Data Rows : 5046
vq_hold             =  1.503085e-01
vq_read             =  8.278550e-01
vq_w0               =  1.599997e+00
vq_w1               =  1.600000e+00
snm_proxy           =  1.132427e-14 at=  1.000100e-09
MEAS_CORNER=tt
MEAS_TEMP_K=373.150000
MEAS_VDD=1.600000
MEAS_SNM_MV=5.66214E-12
MEAS_NOISE=0.423467
MEAS_BER=0.999994
MEAS_HOLD_SNM_MV=5.66214E-12
MEAS_READ_SNM_MV=-677.546
MEAS_WRITE_MARGIN_MV=1600
MEAS_NOISE_SIGMA=0.423467
MEAS_READ_FAIL=1
MEAS_WRITE_FAIL=7.16876E-85
ngspice-45.2 done
