
Note: No compatibility mode selected!


Circuit: * sky130 6t sram ngspice template (real pdk model include)

Doing analysis at TEMP = 25.000000 and TNOM = 27.000000

Using SPARSE 1.3 as Direct Linear Solver
Operating point simulation skipped by 'uic',
  now using transient initial conditions.

No. of Data Rows : 5047
vq_hold             =  1.517842e-01
vq_read             =  9.287828e-01
vq_w0               =  4.226394e-07
vq_w1               =  2.224797e-01
snm_proxy           =  3.330669e-16 at=  1.032500e-09
MEAS_CORNER=tt
MEAS_TEMP_K=298.150000
MEAS_VDD=1.950000
MEAS_SNM_MV=1.66533E-13
MEAS_NOISE=0.841415
MEAS_BER=0.999994
MEAS_HOLD_SNM_MV=1.66533E-13
MEAS_READ_SNM_MV=-776.999
MEAS_WRITE_MARGIN_MV=222.48
MEAS_NOISE_SIGMA=0.841415
MEAS_READ_FAIL=1
MEAS_WRITE_FAIL=4.33139E-10
ngspice-45.2 done
