
Note: No compatibility mode selected!


Circuit: * sky130 6t sram ngspice template (real pdk model include)

Doing analysis at TEMP = 25.000000 and TNOM = 27.000000

Using SPARSE 1.3 as Direct Linear Solver
Operating point simulation skipped by 'uic',
  now using transient initial conditions.

No. of Data Rows : 5046
vq_hold             =  1.114591e-01
vq_read             =  7.691882e-01
vq_w0               =  2.184301e-07
vq_w1               =  1.724129e-01
snm_proxy           =  0.000000e+00 at=  1.001500e-09
MEAS_CORNER=tt
MEAS_TEMP_K=298.150000
MEAS_VDD=1.600000
MEAS_SNM_MV=0
MEAS_NOISE=0.857202
MEAS_BER=0.999994
MEAS_HOLD_SNM_MV=0
MEAS_READ_SNM_MV=-657.729
MEAS_WRITE_MARGIN_MV=172.413
MEAS_NOISE_SIGMA=0.857202
MEAS_READ_FAIL=1
MEAS_WRITE_FAIL=2.26253E-07
ngspice-45.2 done
