
Note: No compatibility mode selected!


Circuit: * sky130 6t sram ngspice template (real pdk model include)

Doing analysis at TEMP = -40.000000 and TNOM = 27.000000

Using SPARSE 1.3 as Direct Linear Solver
Operating point simulation skipped by 'uic',
  now using transient initial conditions.

No. of Data Rows : 5047
vq_hold             =  9.944106e-02
vq_read             =  8.470777e-01
vq_w0               =  2.281141e-09
vq_w1               =  1.773007e-01
snm_proxy           =  0.000000e+00 at=  1.000100e-09
MEAS_CORNER=tt
MEAS_TEMP_K=233.150000
MEAS_VDD=1.800000
MEAS_SNM_MV=0
MEAS_NOISE=0.866103
MEAS_BER=0.999994
MEAS_HOLD_SNM_MV=0
MEAS_READ_SNM_MV=-747.637
MEAS_WRITE_MARGIN_MV=177.301
MEAS_NOISE_SIGMA=0.866103
MEAS_READ_FAIL=1
MEAS_WRITE_FAIL=1.22815E-07
ngspice-45.2 done
