
Note: No compatibility mode selected!


Circuit: * sky130 6t sram ngspice template (real pdk model include)

Doing analysis at TEMP = -40.000000 and TNOM = 27.000000

Using SPARSE 1.3 as Direct Linear Solver
Operating point simulation skipped by 'uic',
  now using transient initial conditions.

No. of Data Rows : 5048
vq_hold             =  1.136071e-01
vq_read             =  9.170499e-01
vq_w0               =  3.401288e-09
vq_w1               =  1.952622e-01
snm_proxy           =  7.105427e-15 at=  1.000300e-09
MEAS_CORNER=tt
MEAS_TEMP_K=233.150000
MEAS_VDD=1.950000
MEAS_SNM_MV=3.55271E-12
MEAS_NOISE=0.861955
MEAS_BER=0.999994
MEAS_HOLD_SNM_MV=3.55271E-12
MEAS_READ_SNM_MV=-803.443
MEAS_WRITE_MARGIN_MV=195.262
MEAS_NOISE_SIGMA=0.861955
MEAS_READ_FAIL=1
MEAS_WRITE_FAIL=1.3007E-08
ngspice-45.2 done
