
Note: No compatibility mode selected!


Circuit: * sky130 6t sram ngspice template (real pdk model include)

Doing analysis at TEMP = 100.000000 and TNOM = 27.000000

Using SPARSE 1.3 as Direct Linear Solver
Operating point simulation skipped by 'uic',
  now using transient initial conditions.

No. of Data Rows : 5048
vq_hold             =  1.988500e-01
vq_read             =  2.895350e-01
vq_w0               =  1.561940e-05
vq_w1               =  2.491929e-01
snm_proxy           =  1.998401e-14 at=  1.000700e-09
MEAS_CORNER=tt
MEAS_TEMP_K=373.150000
MEAS_VDD=1.950000
MEAS_SNM_MV=9.992E-12
MEAS_NOISE=0.48261
MEAS_BER=0.999994
MEAS_HOLD_SNM_MV=9.992E-12
MEAS_READ_SNM_MV=-90.685
MEAS_WRITE_MARGIN_MV=249.193
MEAS_NOISE_SIGMA=0.48261
MEAS_READ_FAIL=1
MEAS_WRITE_FAIL=1.53622E-11
ngspice-45.2 done
