
Note: No compatibility mode selected!


Circuit: * sky130 6t sram ngspice template (real pdk model include)

Doing analysis at TEMP = -40.000000 and TNOM = 27.000000

Using SPARSE 1.3 as Direct Linear Solver
Operating point simulation skipped by 'uic',
  now using transient initial conditions.

No. of Data Rows : 5047
vq_hold             =  8.037407e-02
vq_read             =  7.536861e-01
vq_w0               =  1.503959e-09
vq_w1               =  1.525562e-01
snm_proxy           =  1.887379e-15 at=  1.018500e-09
MEAS_CORNER=tt
MEAS_TEMP_K=233.150000
MEAS_VDD=1.600000
MEAS_SNM_MV=9.4369E-13
MEAS_NOISE=0.873146
MEAS_BER=0.999994
MEAS_HOLD_SNM_MV=9.4369E-13
MEAS_READ_SNM_MV=-673.312
MEAS_WRITE_MARGIN_MV=152.556
MEAS_NOISE_SIGMA=0.873146
MEAS_READ_FAIL=1
MEAS_WRITE_FAIL=2.70738E-06
ngspice-45.2 done
