
Note: No compatibility mode selected!


Circuit: * sky130 6t sram ngspice template (real pdk model include)

Doing analysis at TEMP = 100.000000 and TNOM = 27.000000

Using SPARSE 1.3 as Direct Linear Solver
Operating point simulation skipped by 'uic',
  now using transient initial conditions.

No. of Data Rows : 5047
vq_hold             =  1.775669e-01
vq_read             =  1.516703e+00
vq_w0               =  1.799994e+00
vq_w1               =  1.800000e+00
snm_proxy           =  1.743050e-14 at=  1.001500e-09
MEAS_CORNER=tt
MEAS_TEMP_K=373.150000
MEAS_VDD=1.800000
MEAS_SNM_MV=8.71525E-12
MEAS_NOISE=0.743964
MEAS_BER=0.999994
MEAS_HOLD_SNM_MV=8.71525E-12
MEAS_READ_SNM_MV=-1339.14
MEAS_WRITE_MARGIN_MV=1800
MEAS_NOISE_SIGMA=0.743964
MEAS_READ_FAIL=1
MEAS_WRITE_FAIL=9.95594E-96
ngspice-45.2 done
