
Note: No compatibility mode selected!


Circuit: * freepdk45/openram 6t sram ngspice template (predictive model include)

Doing analysis at TEMP = 25.000000 and TNOM = 27.000000

Using SPARSE 1.3 as Direct Linear Solver
Warning: toxe, toxp and dtox all given and toxe != toxp + dtox; dtox ignored.
Operating point simulation skipped by 'uic',
  now using transient initial conditions.

No. of Data Rows : 5040
vq_hold             =  1.065934e-01
vq_read             =  9.989549e-01
vq_w0               =  9.989541e-01
vq_w1               =  9.999722e-01
snm_proxy           =  1.003552e-09 at=  1.000100e-09
MEAS_CORNER=ff
MEAS_TEMP_K=298.150000
MEAS_VDD=1.000000
MEAS_SNM_MV=5.01776E-07
MEAS_NOISE=0.892375
MEAS_BER=0.999994
MEAS_HOLD_SNM_MV=5.01776E-07
MEAS_READ_SNM_MV=-892.361
MEAS_WRITE_MARGIN_MV=999.972
MEAS_NOISE_SIGMA=0.892375
MEAS_READ_FAIL=1
MEAS_WRITE_FAIL=2.68559E-52
ngspice-45.2 done
