
Note: No compatibility mode selected!


Circuit: * freepdk45/openram 6t sram ngspice template (predictive model include)

Doing analysis at TEMP = -40.000000 and TNOM = 27.000000

Using SPARSE 1.3 as Direct Linear Solver
Warning: toxe, toxp and dtox all given and toxe != toxp + dtox; dtox ignored.
Operating point simulation skipped by 'uic',
  now using transient initial conditions.

No. of Data Rows : 5040
vq_hold             =  7.867930e-02
vq_read             =  8.999231e-01
vq_w0               =  8.999228e-01
vq_w1               =  8.999960e-01
snm_proxy           =  2.163902e-09 at=  1.000100e-09
MEAS_CORNER=ff
MEAS_TEMP_K=233.150000
MEAS_VDD=0.900000
MEAS_SNM_MV=1.08195E-06
MEAS_NOISE=0.912495
MEAS_BER=0.999994
MEAS_HOLD_SNM_MV=1.08195E-06
MEAS_READ_SNM_MV=-821.244
MEAS_WRITE_MARGIN_MV=899.996
MEAS_NOISE_SIGMA=0.912495
MEAS_READ_FAIL=1
MEAS_WRITE_FAIL=7.18503E-47
ngspice-45.2 done
