
Note: No compatibility mode selected!


Circuit: * freepdk45/openram 6t sram ngspice template (predictive model include)

Doing analysis at TEMP = 125.000000 and TNOM = 27.000000

Using SPARSE 1.3 as Direct Linear Solver
Warning: toxe, toxp and dtox all given and toxe != toxp + dtox; dtox ignored.
Operating point simulation skipped by 'uic',
  now using transient initial conditions.

No. of Data Rows : 5040
vq_hold             =  1.411601e-01
vq_read             =  1.935668e-01
vq_w0               =  7.740250e-05
vq_w1               =  1.935670e-01
snm_proxy           =  2.246014e-11 at=  1.000100e-09
MEAS_CORNER=ff
MEAS_TEMP_K=398.150000
MEAS_VDD=1.100000
MEAS_SNM_MV=1.12301E-08
MEAS_NOISE=0.459657
MEAS_BER=0.999994
MEAS_HOLD_SNM_MV=1.12301E-08
MEAS_READ_SNM_MV=-52.4067
MEAS_WRITE_MARGIN_MV=193.567
MEAS_NOISE_SIGMA=0.459657
MEAS_READ_FAIL=0.999997
MEAS_WRITE_FAIL=1.6077E-08
ngspice-45.2 done
