
Note: No compatibility mode selected!


Circuit: * freepdk45/openram 6t sram ngspice template (predictive model include)

Doing analysis at TEMP = -40.000000 and TNOM = 27.000000

Using SPARSE 1.3 as Direct Linear Solver
Operating point simulation skipped by 'uic',
  now using transient initial conditions.

No. of Data Rows : 5040
vq_hold             =  1.038156e-01
vq_read             =  1.099869e+00
vq_w0               =  1.099869e+00
vq_w1               =  1.099996e+00
snm_proxy           =  6.859958e-09 at=  1.000100e-09
MEAS_CORNER=tt
MEAS_TEMP_K=233.150000
MEAS_VDD=1.100000
MEAS_SNM_MV=3.42998E-06
MEAS_NOISE=0.905505
MEAS_BER=0.999994
MEAS_HOLD_SNM_MV=3.42998E-06
MEAS_READ_SNM_MV=-996.053
MEAS_WRITE_MARGIN_MV=1100
MEAS_NOISE_SIGMA=0.905505
MEAS_READ_FAIL=1
MEAS_WRITE_FAIL=9.97853E-58
ngspice-45.2 done
