
Note: No compatibility mode selected!


Circuit: * gf180mcu 6t sram ngspice template (real pdk deck include)

Doing analysis at TEMP = 125.000000 and TNOM = 27.000000

Using SPARSE 1.3 as Direct Linear Solver
Operating point simulation skipped by 'uic',
  now using transient initial conditions.

No. of Data Rows : 5044
vq_hold             =  1.615038e-01
vq_read             =  2.373862e-01
vq_w0               =  1.358724e-06
vq_w1               =  2.373632e-01
snm_proxy           =  2.218659e-02 at=  1.000100e-09
MEAS_CORNER=ff
MEAS_TEMP_K=398.150000
MEAS_VDD=1.620000
MEAS_SNM_MV=11.0933
MEAS_NOISE=0.473581
MEAS_BER=0.999981
MEAS_HOLD_SNM_MV=11.0933
MEAS_READ_SNM_MV=-64.7891
MEAS_WRITE_MARGIN_MV=237.363
MEAS_NOISE_SIGMA=0.473581
MEAS_READ_FAIL=0.999999
MEAS_WRITE_FAIL=6.73984E-11
ngspice-45.2 done
