
Note: No compatibility mode selected!


Circuit: * gf180mcu 6t sram ngspice template (real pdk deck include)

Doing analysis at TEMP = 125.000000 and TNOM = 27.000000

Using SPARSE 1.3 as Direct Linear Solver
Operating point simulation skipped by 'uic',
  now using transient initial conditions.

No. of Data Rows : 5044
vq_hold             =  1.957244e-01
vq_read             =  2.629020e-01
vq_w0               =  8.351160e-07
vq_w1               =  2.628527e-01
snm_proxy           =  8.311658e-03 at=  1.000100e-09
MEAS_CORNER=ff
MEAS_TEMP_K=398.150000
MEAS_VDD=1.800000
MEAS_SNM_MV=4.15583
MEAS_NOISE=0.464306
MEAS_BER=0.999991
MEAS_HOLD_SNM_MV=4.15583
MEAS_READ_SNM_MV=-63.0218
MEAS_WRITE_MARGIN_MV=262.853
MEAS_NOISE_SIGMA=0.464306
MEAS_READ_FAIL=0.999999
MEAS_WRITE_FAIL=2.78552E-12
ngspice-45.2 done
