
Note: No compatibility mode selected!


Circuit: * gf180mcu 6t sram ngspice template (real pdk deck include)

Doing analysis at TEMP = 125.000000 and TNOM = 27.000000

Using SPARSE 1.3 as Direct Linear Solver
Operating point simulation skipped by 'uic',
  now using transient initial conditions.

No. of Data Rows : 5046
vq_hold             =  2.113624e-01
vq_read             =  1.977764e+00
vq_w0               =  1.977765e+00
vq_w1               =  1.979994e+00
snm_proxy           =  7.928437e-02 at=  1.000100e-09
MEAS_CORNER=ff
MEAS_TEMP_K=398.150000
MEAS_VDD=1.980000
MEAS_SNM_MV=39.6422
MEAS_NOISE=0.892124
MEAS_BER=0.999676
MEAS_HOLD_SNM_MV=39.6422
MEAS_READ_SNM_MV=-1726.76
MEAS_WRITE_MARGIN_MV=1979.99
MEAS_NOISE_SIGMA=0.892124
MEAS_READ_FAIL=1
MEAS_WRITE_FAIL=1.68571E-105
ngspice-45.2 done
