
Note: No compatibility mode selected!


Circuit: * gf180mcu 6t sram ngspice template (real pdk deck include)

Doing analysis at TEMP = 125.000000 and TNOM = 27.000000

Using SPARSE 1.3 as Direct Linear Solver
Operating point simulation skipped by 'uic',
  now using transient initial conditions.

No. of Data Rows : 5046
vq_hold             =  1.543966e-01
vq_read             =  2.876409e-01
vq_w0               =  6.548360e-07
vq_w1               =  2.876046e-01
snm_proxy           =  5.888819e-02 at=  1.000100e-09
MEAS_CORNER=fs
MEAS_TEMP_K=398.150000
MEAS_VDD=1.980000
MEAS_SNM_MV=29.4441
MEAS_NOISE=0.494668
MEAS_BER=0.999883
MEAS_HOLD_SNM_MV=29.4441
MEAS_READ_SNM_MV=-103.8
MEAS_WRITE_MARGIN_MV=287.605
MEAS_NOISE_SIGMA=0.494668
MEAS_READ_FAIL=1
MEAS_WRITE_FAIL=1.26242E-13
ngspice-45.2 done
