
Note: No compatibility mode selected!


Circuit: * gf180mcu 6t sram ngspice template (real pdk deck include)

Doing analysis at TEMP = 125.000000 and TNOM = 27.000000

Using SPARSE 1.3 as Direct Linear Solver
Operating point simulation skipped by 'uic',
  now using transient initial conditions.

No. of Data Rows : 5044
vq_hold             =  1.260424e-01
vq_read             =  1.795085e+00
vq_w0               =  1.798471e+00
vq_w1               =  1.799993e+00
snm_proxy           =  1.407336e-02 at=  1.000100e-09
MEAS_CORNER=fs
MEAS_TEMP_K=398.150000
MEAS_VDD=1.800000
MEAS_SNM_MV=7.03668
MEAS_NOISE=0.927248
MEAS_BER=0.999988
MEAS_HOLD_SNM_MV=7.03668
MEAS_READ_SNM_MV=-1662.01
MEAS_WRITE_MARGIN_MV=1799.99
MEAS_NOISE_SIGMA=0.927248
MEAS_READ_FAIL=1
MEAS_WRITE_FAIL=9.96465E-96
ngspice-45.2 done
