
Note: No compatibility mode selected!


Circuit: * gf180mcu 6t sram ngspice template (real pdk deck include)

Doing analysis at TEMP = 25.000000 and TNOM = 27.000000

Using SPARSE 1.3 as Direct Linear Solver
Operating point simulation skipped by 'uic',
  now using transient initial conditions.

No. of Data Rows : 5046
vq_hold             =  8.430706e-02
vq_read             =  7.253519e-01
vq_w0               =  7.947224e-07
vq_w1               =  2.025144e-01
snm_proxy           =  9.311771e-06 at=  1.874500e-09
MEAS_CORNER=fs
MEAS_TEMP_K=298.150000
MEAS_VDD=1.620000
MEAS_SNM_MV=0.00465589
MEAS_NOISE=0.833202
MEAS_BER=0.999994
MEAS_HOLD_SNM_MV=0.00465589
MEAS_READ_SNM_MV=-641.04
MEAS_WRITE_MARGIN_MV=202.514
MEAS_NOISE_SIGMA=0.833202
MEAS_READ_FAIL=1
MEAS_WRITE_FAIL=5.25387E-09
ngspice-45.2 done
