
Note: No compatibility mode selected!


Circuit: * gf180mcu 6t sram ngspice template (real pdk deck include)

Doing analysis at TEMP = 125.000000 and TNOM = 27.000000

Using SPARSE 1.3 as Direct Linear Solver
Operating point simulation skipped by 'uic',
  now using transient initial conditions.

No. of Data Rows : 5044
vq_hold             =  1.986883e-01
vq_read             =  2.018494e-01
vq_w0               =  1.756082e-07
vq_w1               =  2.014462e-01
snm_proxy           =  3.652058e-05 at=  1.028500e-09
MEAS_CORNER=sf
MEAS_TEMP_K=398.150000
MEAS_VDD=1.620000
MEAS_SNM_MV=0.0182603
MEAS_NOISE=0.439777
MEAS_BER=0.999994
MEAS_HOLD_SNM_MV=0.0182603
MEAS_READ_SNM_MV=-3.14284
MEAS_WRITE_MARGIN_MV=201.446
MEAS_NOISE_SIGMA=0.439777
MEAS_READ_FAIL=0.998698
MEAS_WRITE_FAIL=6.00439E-09
ngspice-45.2 done
