
Note: No compatibility mode selected!


Circuit: * gf180mcu 6t sram ngspice template (real pdk deck include)

Doing analysis at TEMP = 125.000000 and TNOM = 27.000000

Using SPARSE 1.3 as Direct Linear Solver
Operating point simulation skipped by 'uic',
  now using transient initial conditions.

No. of Data Rows : 5045
vq_hold             =  2.625619e-01
vq_read             =  2.503904e-01
vq_w0               =  1.319952e-07
vq_w1               =  2.503861e-01
snm_proxy           =  2.738793e-02 at=  1.000100e-09
MEAS_CORNER=sf
MEAS_TEMP_K=398.150000
MEAS_VDD=1.980000
MEAS_SNM_MV=13.694
MEAS_NOISE=0.442918
MEAS_BER=0.999976
MEAS_HOLD_SNM_MV=13.694
MEAS_READ_SNM_MV=1.52246
MEAS_WRITE_MARGIN_MV=250.386
MEAS_NOISE_SIGMA=0.442918
MEAS_READ_FAIL=0.99767
MEAS_WRITE_FAIL=1.32336E-11
ngspice-45.2 done
