
Note: No compatibility mode selected!


Circuit: * gf180mcu 6t sram ngspice template (real pdk deck include)

Doing analysis at TEMP = -40.000000 and TNOM = 27.000000

Using SPARSE 1.3 as Direct Linear Solver
Operating point simulation skipped by 'uic',
  now using transient initial conditions.

No. of Data Rows : 5046
vq_hold             =  1.371571e-01
vq_read             =  1.599446e-01
vq_w0               =  1.938558e-09
vq_w1               =  1.598978e-01
snm_proxy           =  8.433273e-03 at=  1.000100e-09
MEAS_CORNER=sf
MEAS_TEMP_K=233.150000
MEAS_VDD=1.620000
MEAS_SNM_MV=4.21664
MEAS_NOISE=0.464715
MEAS_BER=0.999991
MEAS_HOLD_SNM_MV=4.21664
MEAS_READ_SNM_MV=-18.5709
MEAS_WRITE_MARGIN_MV=159.898
MEAS_NOISE_SIGMA=0.464715
MEAS_READ_FAIL=0.999811
MEAS_WRITE_FAIL=1.08143E-06
ngspice-45.2 done
