
Note: No compatibility mode selected!


Circuit: * gf180mcu 6t sram ngspice template (real pdk deck include)

Doing analysis at TEMP = -40.000000 and TNOM = 27.000000

Using SPARSE 1.3 as Direct Linear Solver
Operating point simulation skipped by 'uic',
  now using transient initial conditions.

No. of Data Rows : 5048
vq_hold             =  1.703528e-01
vq_read             =  1.838634e-01
vq_w0               =  1.901559e-09
vq_w1               =  1.838631e-01
snm_proxy           =  1.784395e-02 at=  1.000100e-09
MEAS_CORNER=sf
MEAS_TEMP_K=233.150000
MEAS_VDD=1.800000
MEAS_SNM_MV=8.92197
MEAS_NOISE=0.456433
MEAS_BER=0.999985
MEAS_HOLD_SNM_MV=8.92197
MEAS_READ_SNM_MV=-4.58863
MEAS_WRITE_MARGIN_MV=183.863
MEAS_NOISE_SIGMA=0.456433
MEAS_READ_FAIL=0.998913
MEAS_WRITE_FAIL=5.40753E-08
ngspice-45.2 done
