
Note: No compatibility mode selected!


Circuit: * gf180mcu 6t sram ngspice template (real pdk deck include)

Doing analysis at TEMP = 125.000000 and TNOM = 27.000000

Using SPARSE 1.3 as Direct Linear Solver
Operating point simulation skipped by 'uic',
  now using transient initial conditions.

No. of Data Rows : 5044
vq_hold             =  1.318719e-01
vq_read             =  4.624283e-01
vq_w0               =  3.665241e-06
vq_w1               =  1.950124e-01
snm_proxy           =  7.321134e-06 at=  1.142500e-09
MEAS_CORNER=ss
MEAS_TEMP_K=398.150000
MEAS_VDD=1.620000
MEAS_SNM_MV=0.00366057
MEAS_NOISE=0.643858
MEAS_BER=0.999994
MEAS_HOLD_SNM_MV=0.00366057
MEAS_READ_SNM_MV=-330.553
MEAS_WRITE_MARGIN_MV=195.012
MEAS_NOISE_SIGMA=0.643858
MEAS_READ_FAIL=1
MEAS_WRITE_FAIL=1.34196E-08
ngspice-45.2 done
