
Note: No compatibility mode selected!


Circuit: * gf180mcu 6t sram ngspice template (real pdk deck include)

Doing analysis at TEMP = 125.000000 and TNOM = 27.000000

Using SPARSE 1.3 as Direct Linear Solver
Operating point simulation skipped by 'uic',
  now using transient initial conditions.

No. of Data Rows : 5044
vq_hold             =  1.543680e-01
vq_read             =  8.164968e-01
vq_w0               =  6.015381e-06
vq_w1               =  2.281276e-01
snm_proxy           =  3.774668e-06 at=  1.676500e-09
MEAS_CORNER=ss
MEAS_TEMP_K=398.150000
MEAS_VDD=1.800000
MEAS_SNM_MV=0.00188733
MEAS_NOISE=0.804481
MEAS_BER=0.999994
MEAS_HOLD_SNM_MV=0.00188733
MEAS_READ_SNM_MV=-662.127
MEAS_WRITE_MARGIN_MV=228.128
MEAS_NOISE_SIGMA=0.804481
MEAS_READ_FAIL=1
MEAS_WRITE_FAIL=2.13806E-10
ngspice-45.2 done
