
Note: No compatibility mode selected!


Circuit: * gf180mcu 6t sram ngspice template (real pdk deck include)

Doing analysis at TEMP = 25.000000 and TNOM = 27.000000

Using SPARSE 1.3 as Direct Linear Solver
Operating point simulation skipped by 'uic',
  now using transient initial conditions.

No. of Data Rows : 5046
vq_hold             =  1.191430e-01
vq_read             =  5.810097e-01
vq_w0               =  9.459562e-08
vq_w1               =  1.936339e-01
snm_proxy           =  7.751471e-03 at=  1.000100e-09
MEAS_CORNER=ss
MEAS_TEMP_K=298.150000
MEAS_VDD=1.800000
MEAS_SNM_MV=3.87574
MEAS_NOISE=0.702805
MEAS_BER=0.999991
MEAS_HOLD_SNM_MV=3.87574
MEAS_READ_SNM_MV=-457.991
MEAS_WRITE_MARGIN_MV=193.634
MEAS_NOISE_SIGMA=0.702805
MEAS_READ_FAIL=1
MEAS_WRITE_FAIL=1.59431E-08
ngspice-45.2 done
