
Note: No compatibility mode selected!


Circuit: * gf180mcu 6t sram ngspice template (real pdk deck include)

Doing analysis at TEMP = -40.000000 and TNOM = 27.000000

Using SPARSE 1.3 as Direct Linear Solver
Operating point simulation skipped by 'uic',
  now using transient initial conditions.

No. of Data Rows : 5046
vq_hold             =  8.405318e-02
vq_read             =  7.294427e-01
vq_w0               =  8.893875e-02
vq_w1               =  1.471952e-01
snm_proxy           =  2.731799e-06 at=  1.302500e-09
MEAS_CORNER=ss
MEAS_TEMP_K=233.150000
MEAS_VDD=1.620000
MEAS_SNM_MV=0.0013659
MEAS_NOISE=0.852958
MEAS_BER=0.999994
MEAS_HOLD_SNM_MV=0.0013659
MEAS_READ_SNM_MV=-645.388
MEAS_WRITE_MARGIN_MV=147.195
MEAS_NOISE_SIGMA=0.852958
MEAS_READ_FAIL=1
MEAS_WRITE_FAIL=5.29152E-06
ngspice-45.2 done
