
Note: No compatibility mode selected!


Circuit: * gf180mcu 6t sram ngspice template (real pdk deck include)

Doing analysis at TEMP = 125.000000 and TNOM = 27.000000

Using SPARSE 1.3 as Direct Linear Solver
Operating point simulation skipped by 'uic',
  now using transient initial conditions.

No. of Data Rows : 5044
vq_hold             =  1.455508e-01
vq_read             =  2.156103e-01
vq_w0               =  1.926998e-07
vq_w1               =  2.150823e-01
snm_proxy           =  1.269822e-02 at=  1.000100e-09
MEAS_CORNER=tt
MEAS_TEMP_K=398.150000
MEAS_VDD=1.620000
MEAS_SNM_MV=6.34911
MEAS_NOISE=0.476863
MEAS_BER=0.999988
MEAS_HOLD_SNM_MV=6.34911
MEAS_READ_SNM_MV=-63.7104
MEAS_WRITE_MARGIN_MV=215.082
MEAS_NOISE_SIGMA=0.476863
MEAS_READ_FAIL=0.999999
MEAS_WRITE_FAIL=1.09196E-09
ngspice-45.2 done
