
Note: No compatibility mode selected!


Circuit: * gf180mcu 6t sram ngspice template (real pdk deck include)

Doing analysis at TEMP = 125.000000 and TNOM = 27.000000

Using SPARSE 1.3 as Direct Linear Solver
Operating point simulation skipped by 'uic',
  now using transient initial conditions.

No. of Data Rows : 5046
vq_hold             =  2.068820e-01
vq_read             =  1.972922e+00
vq_w0               =  1.979520e+00
vq_w1               =  1.979998e+00
snm_proxy           =  1.770358e-02 at=  1.000100e-09
MEAS_CORNER=tt
MEAS_TEMP_K=398.150000
MEAS_VDD=1.980000
MEAS_SNM_MV=8.85179
MEAS_NOISE=0.89194
MEAS_BER=0.999985
MEAS_HOLD_SNM_MV=8.85179
MEAS_READ_SNM_MV=-1757.19
MEAS_WRITE_MARGIN_MV=1980
MEAS_NOISE_SIGMA=0.89194
MEAS_READ_FAIL=1
MEAS_WRITE_FAIL=1.68486E-105
ngspice-45.2 done
