
Note: No compatibility mode selected!


Circuit: * gf180mcu 6t sram ngspice template (real pdk deck include)

Doing analysis at TEMP = -40.000000 and TNOM = 27.000000

Using SPARSE 1.3 as Direct Linear Solver
Operating point simulation skipped by 'uic',
  now using transient initial conditions.

No. of Data Rows : 5046
vq_hold             =  9.910698e-02
vq_read             =  6.893143e-01
vq_w0               =  2.526720e-08
vq_w1               =  1.657527e-01
snm_proxy           =  2.307881e-03 at=  1.000100e-09
MEAS_CORNER=tt
MEAS_TEMP_K=233.150000
MEAS_VDD=1.620000
MEAS_SNM_MV=1.15394
MEAS_NOISE=0.813167
MEAS_BER=0.999993
MEAS_HOLD_SNM_MV=1.15394
MEAS_READ_SNM_MV=-589.053
MEAS_WRITE_MARGIN_MV=165.753
MEAS_NOISE_SIGMA=0.813167
MEAS_READ_FAIL=1
MEAS_WRITE_FAIL=5.20182E-07
ngspice-45.2 done
